 Hemispherical Deep Draw                                                 
                         ls-dyna mpp971sR4.2.1.53450  date 06/08/2009


 dt of cycle       1 is controlled by shell      element     337

 time...........................   0.00000E+00
 time step......................   1.45548E-03
 kinetic energy.................   0.00000E+00
 internal energy................   4.00000E-20
 stonewall energy...............   0.00000E+00 wall# 1
 spring and damper energy.......   4.00000E-20
 hourglass energy ..............   0.00000E+00
 system damping energy..........   0.00000E+00
 sliding interface energy.......   0.00000E+00
 external work..................   0.00000E+00
 eroded kinetic energy..........   0.00000E+00
 eroded internal energy.........   0.00000E+00
 eroded hourglass energy........   0.00000E+00
 total energy...................   4.00000E-20
 total energy / initial energy..   1.00000E+00
 energy ratio w/o eroded energy.   1.00000E+00
 global x velocity..............   0.00000E+00
 global y velocity..............   0.00000E+00
 global z velocity..............   0.00000E+00
 time per zone cycle.(nanosec)..         13764


 dt of cycle      35 is controlled by shell      element     337

 time...........................   4.94865E-02
 time step......................   1.45548E-03
 kinetic energy.................   3.73584E-07
 internal energy................   1.93650E-07
 stonewall energy...............   0.00000E+00 wall# 1
 spring and damper energy.......   4.00000E-20
 hourglass energy ..............   3.20256E-09
 system damping energy..........   0.00000E+00
 sliding interface energy.......   1.69490E-05
 external work..................   1.73762E-05
 eroded kinetic energy..........   0.00000E+00
 eroded internal energy.........   0.00000E+00
 eroded hourglass energy........   0.00000E+00
 total energy...................   1.75194E-05
 total energy / initial energy..   1.00824E+00
 energy ratio w/o eroded energy.   1.00824E+00
 global x velocity..............   1.01213E-08
 global y velocity..............  -4.82459E-04
 global z velocity..............  -1.03869E-08
 time per zone cycle.(nanosec)..          6882


 dt of cycle      69 is controlled by shell      element     337

 time...........................   9.89729E-02
 time step......................   1.45548E-03
 kinetic energy.................   1.50923E-06
 internal energy................   3.37888E-07
 stonewall energy...............   0.00000E+00 wall# 1
 spring and damper energy.......   4.00000E-20
 hourglass energy ..............   5.41602E-08
 system damping energy..........   0.00000E+00
 sliding interface energy.......   2.92406E-05
 external work..................   3.09752E-05
 eroded kinetic energy..........   0.00000E+00
 eroded internal energy.........   0.00000E+00
 eroded hourglass energy........   0.00000E+00
 total energy...................   3.11418E-05
 total energy / initial energy..   1.00538E+00
 energy ratio w/o eroded energy.   1.00538E+00
 global x velocity..............  -1.34782E-09
 global y velocity..............  -1.02855E-03
 global z velocity..............   1.66297E-09
 time per zone cycle.(nanosec)..             0


 dt of cycle     104 is controlled by shell      element     337

 time...........................   1.49915E-01
 time step......................   1.45548E-03
 kinetic energy.................   2.45036E-06
 internal energy................   5.40764E-07
 stonewall energy...............   0.00000E+00 wall# 1
 spring and damper energy.......   4.00000E-20
 hourglass energy ..............   1.92731E-07
 system damping energy..........   0.00000E+00
 sliding interface energy.......   6.16550E-05
 external work..................   6.46015E-05
 eroded kinetic energy..........   0.00000E+00
 eroded internal energy.........   0.00000E+00
 eroded hourglass energy........   0.00000E+00
 total energy...................   6.48388E-05
 total energy / initial energy..   1.00367E+00
 energy ratio w/o eroded energy.   1.00367E+00
 global x velocity..............   4.25795E-09
 global y velocity..............  -1.37943E-03
 global z velocity..............  -4.37253E-09
 time per zone cycle.(nanosec)..             0


 dt of cycle     138 is controlled by shell      element     337

 time...........................   1.99401E-01
 time step......................   1.45548E-03
 kinetic energy.................   2.03205E-06
 internal energy................   8.99214E-07
 stonewall energy...............   0.00000E+00 wall# 1
 spring and damper energy.......   4.00000E-20
 hourglass energy ..............   4.53933E-07
 system damping energy..........   0.00000E+00
 sliding interface energy.......   1.00802E-04
 external work..................   1.04064E-04
 eroded kinetic energy..........   0.00000E+00
 eroded internal energy.........   0.00000E+00
 eroded hourglass energy........   0.00000E+00
 total energy...................   1.04188E-04
 total energy / initial energy..   1.00118E+00
 energy ratio w/o eroded energy.   1.00118E+00
 global x velocity..............  -6.66509E-09
 global y velocity..............  -1.81730E-03
 global z velocity..............   6.61451E-09
 time per zone cycle.(nanosec)..             0


 dt of cycle     172 is controlled by shell      element     337

 time...........................   2.48888E-01
 time step......................   1.45548E-03
 kinetic energy.................   2.25118E-06
 internal energy................   8.95515E-07
 stonewall energy...............   0.00000E+00 wall# 1
 spring and damper energy.......   4.00000E-20
 hourglass energy ..............   7.73114E-07
 system damping energy..........   0.00000E+00
 sliding interface energy.......   1.23915E-04
 external work..................   1.27778E-04
 eroded kinetic energy..........   0.00000E+00
 eroded internal energy.........   0.00000E+00
 eroded hourglass energy........   0.00000E+00
 total energy...................   1.27835E-04
 total energy / initial energy..   1.00045E+00
 energy ratio w/o eroded energy.   1.00045E+00
 global x velocity..............  -3.02728E-09
 global y velocity..............  -1.69929E-03
 global z velocity..............   2.93269E-09
 time per zone cycle.(nanosec)..             0


 dt of cycle     207 is controlled by shell      element     337

 time...........................   2.99830E-01
 time step......................   1.45548E-03
 kinetic energy.................   3.12775E-06
 internal energy................   5.95963E-07
 stonewall energy...............   0.00000E+00 wall# 1
 spring and damper energy.......   4.00000E-20
 hourglass energy ..............   1.13637E-06
 system damping energy..........   0.00000E+00
 sliding interface energy.......   1.95414E-04
 external work..................   1.99947E-04
 eroded kinetic energy..........   0.00000E+00
 eroded internal energy.........   0.00000E+00
 eroded hourglass energy........   0.00000E+00
 total energy...................   2.00275E-04
 total energy / initial energy..   1.00164E+00
 energy ratio w/o eroded energy.   1.00164E+00
 global x velocity..............   2.65228E-09
 global y velocity..............  -1.78987E-03
 global z velocity..............  -2.52059E-09
 time per zone cycle.(nanosec)..             0


 dt of cycle     241 is controlled by shell      element     337

 time...........................   3.49316E-01
 time step......................   1.45548E-03
 kinetic energy.................   2.74377E-06
 internal energy................   3.31403E-07
 stonewall energy...............   0.00000E+00 wall# 1
 spring and damper energy.......   4.00000E-20
 hourglass energy ..............   1.46477E-06
 system damping energy..........   0.00000E+00
 sliding interface energy.......   2.57349E-04
 external work..................   2.61858E-04
 eroded kinetic energy..........   0.00000E+00
 eroded internal energy.........   0.00000E+00
 eroded hourglass energy........   0.00000E+00
 total energy...................   2.61888E-04
 total energy / initial energy..   1.00012E+00
 energy ratio w/o eroded energy.   1.00012E+00
 global x velocity..............   7.93612E-09
 global y velocity..............  -1.78621E-03
 global z velocity..............  -8.27668E-09
 time per zone cycle.(nanosec)..             0


 dt of cycle     275 is controlled by shell      element     337

 time...........................   3.98803E-01
 time step......................   1.45548E-03
 kinetic energy.................   2.31688E-06
 internal energy................   2.94442E-07
 stonewall energy...............   0.00000E+00 wall# 1
 spring and damper energy.......   4.00000E-20
 hourglass energy ..............   1.74899E-06
 system damping energy..........   0.00000E+00
 sliding interface energy.......   3.00540E-04
 external work..................   3.04943E-04
 eroded kinetic energy..........   0.00000E+00
 eroded internal energy.........   0.00000E+00
 eroded hourglass energy........   0.00000E+00
 total energy...................   3.04901E-04
 total energy / initial energy..   9.99862E-01
 energy ratio w/o eroded energy.   9.99862E-01
 global x velocity..............   1.04248E-08
 global y velocity..............  -1.78929E-03
 global z velocity..............  -1.00894E-08
 time per zone cycle.(nanosec)..             0


 dt of cycle     310 is controlled by shell      element     337

 time...........................   4.49744E-01
 time step......................   1.45548E-03
 kinetic energy.................   2.78650E-06
 internal energy................   2.79869E-07
 stonewall energy...............   0.00000E+00 wall# 1
 spring and damper energy.......   4.00000E-20
 hourglass energy ..............   1.98211E-06
 system damping energy..........   0.00000E+00
 sliding interface energy.......   4.12441E-04
 external work..................   4.17155E-04
 eroded kinetic energy..........   0.00000E+00
 eroded internal energy.........   0.00000E+00
 eroded hourglass energy........   0.00000E+00
 total energy...................   4.17490E-04
 total energy / initial energy..   1.00080E+00
 energy ratio w/o eroded energy.   1.00080E+00
 global x velocity..............  -3.57702E-09
 global y velocity..............  -1.85990E-03
 global z velocity..............   3.58601E-09
 time per zone cycle.(nanosec)..             0


 dt of cycle     344 is controlled by shell      element     337

 time...........................   4.99231E-01
 time step......................   1.45548E-03
 kinetic energy.................   2.32318E-06
 internal energy................   2.35233E-07
 stonewall energy...............   0.00000E+00 wall# 1
 spring and damper energy.......   4.00000E-20
 hourglass energy ..............   2.13619E-06
 system damping energy..........   0.00000E+00
 sliding interface energy.......   4.90477E-04
 external work..................   4.95169E-04
 eroded kinetic energy..........   0.00000E+00
 eroded internal energy.........   0.00000E+00
 eroded hourglass energy........   0.00000E+00
 total energy...................   4.95171E-04
 total energy / initial energy..   1.00001E+00
 energy ratio w/o eroded energy.   1.00001E+00
 global x velocity..............  -2.76777E-09
 global y velocity..............  -1.90623E-03
 global z velocity..............   2.53786E-09
 time per zone cycle.(nanosec)..             0


 dt of cycle     378 is controlled by shell      element     337

 time...........................   5.48717E-01
 time step......................   1.45548E-03
 kinetic energy.................   1.37044E-06
 internal energy................   2.43869E-07
 stonewall energy...............   0.00000E+00 wall# 1
 spring and damper energy.......   4.00000E-20
 hourglass energy ..............   2.25837E-06
 system damping energy..........   0.00000E+00
 sliding interface energy.......   5.52959E-04
 external work..................   5.56934E-04
 eroded kinetic energy..........   0.00000E+00
 eroded internal energy.........   0.00000E+00
 eroded hourglass energy........   0.00000E+00
 total energy...................   5.56832E-04
 total energy / initial energy..   9.99816E-01
 energy ratio w/o eroded energy.   9.99816E-01
 global x velocity..............  -1.94803E-08
 global y velocity..............  -1.54074E-03
 global z velocity..............   2.00914E-08
 time per zone cycle.(nanosec)..             0


 dt of cycle     413 is controlled by shell      element     337

 time...........................   5.99659E-01
 time step......................   1.45548E-03
 kinetic energy.................   1.62332E-06
 internal energy................   2.66083E-07
 stonewall energy...............   0.00000E+00 wall# 1
 spring and damper energy.......   4.00000E-20
 hourglass energy ..............   2.34512E-06
 system damping energy..........   0.00000E+00
 sliding interface energy.......   7.06126E-04
 external work..................   7.10073E-04
 eroded kinetic energy..........   0.00000E+00
 eroded internal energy.........   0.00000E+00
 eroded hourglass energy........   0.00000E+00
 total energy...................   7.10361E-04
 total energy / initial energy..   1.00041E+00
 energy ratio w/o eroded energy.   1.00041E+00
 global x velocity..............   1.25392E-08
 global y velocity..............  -1.56591E-03
 global z velocity..............  -1.30128E-08
 time per zone cycle.(nanosec)..             0


 dt of cycle     447 is controlled by shell      element     337

 time...........................   6.49146E-01
 time step......................   1.45548E-03
 kinetic energy.................   1.16433E-06
 internal energy................   2.36203E-07
 stonewall energy...............   0.00000E+00 wall# 1
 spring and damper energy.......   4.00000E-20
 hourglass energy ..............   2.42434E-06
 system damping energy..........   0.00000E+00
 sliding interface energy.......   7.96878E-04
 external work..................   8.00672E-04
 eroded kinetic energy..........   0.00000E+00
 eroded internal energy.........   0.00000E+00
 eroded hourglass energy........   0.00000E+00
 total energy...................   8.00703E-04
 total energy / initial energy..   1.00004E+00
 energy ratio w/o eroded energy.   1.00004E+00
 global x velocity..............  -3.90402E-09
 global y velocity..............  -1.21105E-03
 global z velocity..............   3.83509E-09
 time per zone cycle.(nanosec)..             0


 dt of cycle     481 is controlled by shell      element     337

 time...........................   6.98632E-01
 time step......................   1.45548E-03
 kinetic energy.................   4.26981E-07
 internal energy................   2.46268E-07
 stonewall energy...............   0.00000E+00 wall# 1
 spring and damper energy.......   4.00000E-20
 hourglass energy ..............   2.50915E-06
 system damping energy..........   0.00000E+00
 sliding interface energy.......   9.02274E-04
 external work..................   9.05556E-04
 eroded kinetic energy..........   0.00000E+00
 eroded internal energy.........   0.00000E+00
 eroded hourglass energy........   0.00000E+00
 total energy...................   9.05456E-04
 total energy / initial energy..   9.99890E-01
 energy ratio w/o eroded energy.   9.99890E-01
 global x velocity..............   2.28581E-08
 global y velocity..............  -6.53314E-04
 global z velocity..............  -2.25495E-08
 time per zone cycle.(nanosec)..             0


 dt of cycle     516 is controlled by shell      element     337

 time...........................   7.49574E-01
 time step......................   1.45548E-03
 kinetic energy.................   4.87410E-07
 internal energy................   2.50297E-07
 stonewall energy...............   0.00000E+00 wall# 1
 spring and damper energy.......   4.00000E-20
 hourglass energy ..............   2.60184E-06
 system damping energy..........   0.00000E+00
 sliding interface energy.......   1.09757E-03
 external work..................   1.10077E-03
 eroded kinetic energy..........   0.00000E+00
 eroded internal energy.........   0.00000E+00
 eroded hourglass energy........   0.00000E+00
 total energy...................   1.10091E-03
 total energy / initial energy..   1.00013E+00
 energy ratio w/o eroded energy.   1.00013E+00
 global x velocity..............  -9.38792E-09
 global y velocity..............  -7.17130E-04
 global z velocity..............   8.78656E-09
 time per zone cycle.(nanosec)..             0


 dt of cycle     550 is controlled by shell      element     337

 time...........................   7.99061E-01
 time step......................   1.45548E-03
 kinetic energy.................   5.90023E-07
 internal energy................   3.34447E-07
 stonewall energy...............   0.00000E+00 wall# 1
 spring and damper energy.......   4.00000E-20
 hourglass energy ..............   2.69971E-06
 system damping energy..........   0.00000E+00
 sliding interface energy.......   1.21222E-03
 external work..................   1.21573E-03
 eroded kinetic energy..........   0.00000E+00
 eroded internal energy.........   0.00000E+00
 eroded hourglass energy........   0.00000E+00
 total energy...................   1.21584E-03
 total energy / initial energy..   1.00009E+00
 energy ratio w/o eroded energy.   1.00009E+00
 global x velocity..............   2.09811E-09
 global y velocity..............  -3.36601E-04
 global z velocity..............  -1.66945E-09
 time per zone cycle.(nanosec)..             0


 dt of cycle     584 is controlled by shell      element     337

 time...........................   8.48547E-01
 time step......................   1.45548E-03
 kinetic energy.................   3.88367E-07
 internal energy................   3.38886E-07
 stonewall energy...............   0.00000E+00 wall# 1
 spring and damper energy.......   4.00000E-20
 hourglass energy ..............   2.80983E-06
 system damping energy..........   0.00000E+00
 sliding interface energy.......   1.37115E-03
 external work..................   1.37476E-03
 eroded kinetic energy..........   0.00000E+00
 eroded internal energy.........   0.00000E+00
 eroded hourglass energy........   0.00000E+00
 total energy...................   1.37468E-03
 total energy / initial energy..   9.99945E-01
 energy ratio w/o eroded energy.   9.99945E-01
 global x velocity..............  -7.95448E-09
 global y velocity..............  -9.00051E-05
 global z velocity..............   8.13920E-09
 time per zone cycle.(nanosec)..             0


 dt of cycle     619 is controlled by shell      element     337

 time...........................   8.99489E-01
 time step......................   1.45548E-03
 kinetic energy.................   2.62675E-07
 internal energy................   2.83368E-07
 stonewall energy...............   0.00000E+00 wall# 1
 spring and damper energy.......   4.00000E-20
 hourglass energy ..............   2.91969E-06
 system damping energy..........   0.00000E+00
 sliding interface energy.......   1.59633E-03
 external work..................   1.59979E-03
 eroded kinetic energy..........   0.00000E+00
 eroded internal energy.........   0.00000E+00
 eroded hourglass energy........   0.00000E+00
 total energy...................   1.59980E-03
 total energy / initial energy..   1.00001E+00
 energy ratio w/o eroded energy.   1.00001E+00
 global x velocity..............   1.32874E-10
 global y velocity..............  -1.59642E-04
 global z velocity..............  -5.12139E-10
 time per zone cycle.(nanosec)..             0


 dt of cycle     653 is controlled by shell      element     337

 time...........................   9.48975E-01
 time step......................   1.45548E-03
 kinetic energy.................   5.92759E-07
 internal energy................   2.12555E-07
 stonewall energy...............   0.00000E+00 wall# 1
 spring and damper energy.......   4.00000E-20
 hourglass energy ..............   3.01820E-06
 system damping energy..........   0.00000E+00
 sliding interface energy.......   1.73600E-03
 external work..................   1.73969E-03
 eroded kinetic energy..........   0.00000E+00
 eroded internal energy.........   0.00000E+00
 eroded hourglass energy........   0.00000E+00
 total energy...................   1.73983E-03
 total energy / initial energy..   1.00008E+00
 energy ratio w/o eroded energy.   1.00008E+00
 global x velocity..............   1.18446E-08
 global y velocity..............   8.04589E-05
 global z velocity..............  -1.15338E-08
 time per zone cycle.(nanosec)..             0


 dt of cycle     688 is controlled by shell      element     337

 time...........................   9.99917E-01
 time step......................   1.45548E-03
 kinetic energy.................   7.35562E-07
 internal energy................   1.91039E-07
 stonewall energy...............   0.00000E+00 wall# 1
 spring and damper energy.......   4.00000E-20
 hourglass energy ..............   3.10611E-06
 system damping energy..........   0.00000E+00
 sliding interface energy.......   1.96336E-03
 external work..................   1.96736E-03
 eroded kinetic energy..........   0.00000E+00
 eroded internal energy.........   0.00000E+00
 eroded hourglass energy........   0.00000E+00
 total energy...................   1.96740E-03
 total energy / initial energy..   1.00002E+00
 energy ratio w/o eroded energy.   1.00002E+00
 global x velocity..............  -1.56198E-09
 global y velocity..............   5.88937E-05
 global z velocity..............   1.46473E-09
 time per zone cycle.(nanosec)..          6882


 dt of cycle     722 is controlled by shell      element     337

 time...........................   1.04940E+00
 time step......................   1.45548E-03
 kinetic energy.................   5.39073E-03
 internal energy................   7.01184E-05
 stonewall energy...............   0.00000E+00 wall# 1
 spring and damper energy.......   4.00000E-20
 hourglass energy ..............   3.14433E-05
 system damping energy..........   0.00000E+00
 sliding interface energy.......   2.02729E-03
 external work..................   7.65475E-03
 eroded kinetic energy..........   0.00000E+00
 eroded internal energy.........   0.00000E+00
 eroded hourglass energy........   0.00000E+00
 total energy...................   7.51958E-03
 total energy / initial energy..   9.82342E-01
 energy ratio w/o eroded energy.   9.82342E-01
 global x velocity..............  -2.38161E-06
 global y velocity..............  -3.91947E-02
 global z velocity..............   2.38105E-06
 time per zone cycle.(nanosec)..          6882


 dt of cycle     756 is controlled by shell      element     337

 time...........................   1.09889E+00
 time step......................   1.45548E-03
 kinetic energy.................   2.18878E-02
 internal energy................   7.43987E-04
 stonewall energy...............   0.00000E+00 wall# 1
 spring and damper energy.......   4.00000E-20
 hourglass energy ..............   1.42569E-04
 system damping energy..........   0.00000E+00
 sliding interface energy.......   2.04248E-03
 external work..................   2.50743E-02
 eroded kinetic energy..........   0.00000E+00
 eroded internal energy.........   0.00000E+00
 eroded hourglass energy........   0.00000E+00
 total energy...................   2.48168E-02
 total energy / initial energy..   9.89731E-01
 energy ratio w/o eroded energy.   9.89731E-01
 global x velocity..............  -6.78452E-05
 global y velocity..............  -8.07513E-02
 global z velocity..............   6.78444E-05
 time per zone cycle.(nanosec)..             0


 dt of cycle     791 is controlled by shell      element     259

 time...........................   1.14983E+00
 time step......................   1.45549E-03
 kinetic energy.................   5.16925E-02
 internal energy................   2.91268E-03
 stonewall energy...............   0.00000E+00 wall# 1
 spring and damper energy.......   4.00000E-20
 hourglass energy ..............   3.83359E-04
 system damping energy..........   0.00000E+00
 sliding interface energy.......   2.17588E-03
 external work..................   5.75412E-02
 eroded kinetic energy..........   0.00000E+00
 eroded internal energy.........   0.00000E+00
 eroded hourglass energy........   0.00000E+00
 total energy...................   5.71644E-02
 total energy / initial energy..   9.93452E-01
 energy ratio w/o eroded energy.   9.93452E-01
 global x velocity..............  -2.90319E-04
 global y velocity..............  -1.26952E-01
 global z velocity..............   2.90307E-04
 time per zone cycle.(nanosec)..             0


 dt of cycle     825 is controlled by shell      element     259

 time...........................   1.19932E+00
 time step......................   1.45549E-03
 kinetic energy.................   9.32872E-02
 internal energy................   7.16296E-03
 stonewall energy...............   0.00000E+00 wall# 1
 spring and damper energy.......   4.00000E-20
 hourglass energy ..............   6.87075E-04
 system damping energy..........   0.00000E+00
 sliding interface energy.......   2.37543E-03
 external work..................   1.03949E-01
 eroded kinetic energy..........   0.00000E+00
 eroded internal energy.........   0.00000E+00
 eroded hourglass energy........   0.00000E+00
 total energy...................   1.03513E-01
 total energy / initial energy..   9.95807E-01
 energy ratio w/o eroded energy.   9.95807E-01
 global x velocity..............  -6.57421E-04
 global y velocity..............  -1.74190E-01
 global z velocity..............   6.57365E-04
 time per zone cycle.(nanosec)..             0


 dt of cycle     859 is controlled by shell      element     145

 time...........................   1.24881E+00
 time step......................   1.45550E-03
 kinetic energy.................   1.47779E-01
 internal energy................   1.41057E-02
 stonewall energy...............   0.00000E+00 wall# 1
 spring and damper energy.......   4.00000E-20
 hourglass energy ..............   1.06870E-03
 system damping energy..........   0.00000E+00
 sliding interface energy.......   2.43667E-03
 external work..................   1.65929E-01
 eroded kinetic energy..........   0.00000E+00
 eroded internal energy.........   0.00000E+00
 eroded hourglass energy........   0.00000E+00
 total energy...................   1.65390E-01
 total energy / initial energy..   9.96751E-01
 energy ratio w/o eroded energy.   9.96751E-01
 global x velocity..............  -1.26063E-03
 global y velocity..............  -2.23424E-01
 global z velocity..............   1.26042E-03
 time per zone cycle.(nanosec)..             0


 dt of cycle     894 is controlled by shell      element     145

 time...........................   1.29975E+00
 time step......................   1.45551E-03
 kinetic energy.................   2.16717E-01
 internal energy................   2.44252E-02
 stonewall energy...............   0.00000E+00 wall# 1
 spring and damper energy.......   4.00000E-20
 hourglass energy ..............   1.54210E-03
 system damping energy..........   0.00000E+00
 sliding interface energy.......   2.64196E-03
 external work..................   2.45960E-01
 eroded kinetic energy..........   0.00000E+00
 eroded internal energy.........   0.00000E+00
 eroded hourglass energy........   0.00000E+00
 total energy...................   2.45326E-01
 total energy / initial energy..   9.97425E-01
 energy ratio w/o eroded energy.   9.97425E-01
 global x velocity..............  -1.37716E-03
 global y velocity..............  -2.75209E-01
 global z velocity..............   1.37655E-03
 time per zone cycle.(nanosec)..             0


 dt of cycle     928 is controlled by shell      element     145

 time...........................   1.34924E+00
 time step......................   1.45552E-03
 kinetic energy.................   2.96218E-01
 internal energy................   3.81515E-02
 stonewall energy...............   0.00000E+00 wall# 1
 spring and damper energy.......   4.00000E-20
 hourglass energy ..............   2.10217E-03
 system damping energy..........   0.00000E+00
 sliding interface energy.......   2.79759E-03
 external work..................   3.39965E-01
 eroded kinetic energy..........   0.00000E+00
 eroded internal energy.........   0.00000E+00
 eroded hourglass energy........   0.00000E+00
 total energy...................   3.39269E-01
 total energy / initial energy..   9.97954E-01
 energy ratio w/o eroded energy.   9.97954E-01
 global x velocity..............  -3.40850E-03
 global y velocity..............  -3.26873E-01
 global z velocity..............   3.40719E-03
 time per zone cycle.(nanosec)..             0


 dt of cycle     962 is controlled by shell      element     181

 time...........................   1.39872E+00
 time step......................   1.45555E-03
 kinetic energy.................   3.87589E-01
 internal energy................   5.65646E-02
 stonewall energy...............   0.00000E+00 wall# 1
 spring and damper energy.......   4.00000E-20
 hourglass energy ..............   2.79846E-03
 system damping energy..........   0.00000E+00
 sliding interface energy.......   2.97797E-03
 external work..................   4.50681E-01
 eroded kinetic energy..........   0.00000E+00
 eroded internal energy.........   0.00000E+00
 eroded hourglass energy........   0.00000E+00
 total energy...................   4.49930E-01
 total energy / initial energy..   9.98334E-01
 energy ratio w/o eroded energy.   9.98334E-01
 global x velocity..............  -4.03170E-03
 global y velocity..............  -3.82094E-01
 global z velocity..............   4.02898E-03
 time per zone cycle.(nanosec)..             0


 dt of cycle     997 is controlled by shell      element     181

 time...........................   1.44967E+00
 time step......................   1.45558E-03
 kinetic energy.................   4.93592E-01
 internal energy................   8.16334E-02
 stonewall energy...............   0.00000E+00 wall# 1
 spring and damper energy.......   4.00000E-20
 hourglass energy ..............   3.70585E-03
 system damping energy..........   0.00000E+00
 sliding interface energy.......   3.36530E-03
 external work..................   5.83059E-01
 eroded kinetic energy..........   0.00000E+00
 eroded internal energy.........   0.00000E+00
 eroded hourglass energy........   0.00000E+00
 total energy...................   5.82297E-01
 total energy / initial energy..   9.98693E-01
 energy ratio w/o eroded energy.   9.98693E-01
 global x velocity..............  -6.32275E-03
 global y velocity..............  -4.41529E-01
 global z velocity..............   6.31712E-03
 time per zone cycle.(nanosec)..             0


 dt of cycle    1031 is controlled by shell      element     181

 time...........................   1.49916E+00
 time step......................   1.45562E-03
 kinetic energy.................   6.56443E-01
 internal energy................   1.21572E-01
 stonewall energy...............   0.00000E+00 wall# 1
 spring and damper energy.......   4.00000E-20
 hourglass energy ..............   7.32509E-03
 system damping energy..........   0.00000E+00
 sliding interface energy.......   3.53505E-03
 external work..................   7.89842E-01
 eroded kinetic energy..........   0.00000E+00
 eroded internal energy.........   0.00000E+00
 eroded hourglass energy........   0.00000E+00
 total energy...................   7.88876E-01
 total energy / initial energy..   9.98776E-01
 energy ratio w/o eroded energy.   9.98776E-01
 global x velocity..............  -1.03232E-02
 global y velocity..............  -5.19154E-01
 global z velocity..............   1.03113E-02
 time per zone cycle.(nanosec)..             0


 dt of cycle    1065 is controlled by shell      element     181

 time...........................   1.54865E+00
 time step......................   1.45569E-03
 kinetic energy.................   8.09513E-01
 internal energy................   1.71859E-01
 stonewall energy...............   0.00000E+00 wall# 1
 spring and damper energy.......   4.00000E-20
 hourglass energy ..............   1.07099E-02
 system damping energy..........   0.00000E+00
 sliding interface energy.......   7.50917E-03
 external work..................   9.97413E-01
 eroded kinetic energy..........   0.00000E+00
 eroded internal energy.........   0.00000E+00
 eroded hourglass energy........   0.00000E+00
 total energy...................   9.99590E-01
 total energy / initial energy..   1.00218E+00
 energy ratio w/o eroded energy.   1.00218E+00
 global x velocity..............  -2.31883E-02
 global y velocity..............  -5.84563E-01
 global z velocity..............   2.31533E-02
 time per zone cycle.(nanosec)..             0


 dt of cycle    1100 is controlled by shell      element     259

 time...........................   1.59960E+00
 time step......................   1.45578E-03
 kinetic energy.................   9.71139E-01
 internal energy................   2.44674E-01
 stonewall energy...............   0.00000E+00 wall# 1
 spring and damper energy.......   4.00000E-20
 hourglass energy ..............   1.31460E-02
 system damping energy..........   0.00000E+00
 sliding interface energy.......   1.03244E-02
 external work..................   1.23794E+00
 eroded kinetic energy..........   0.00000E+00
 eroded internal energy.........   0.00000E+00
 eroded hourglass energy........   0.00000E+00
 total energy...................   1.23928E+00
 total energy / initial energy..   1.00109E+00
 energy ratio w/o eroded energy.   1.00109E+00
 global x velocity..............  -4.70683E-02
 global y velocity..............  -6.48073E-01
 global z velocity..............   4.69812E-02
 time per zone cycle.(nanosec)..             0


 dt of cycle    1134 is controlled by shell      element     379

 time...........................   1.64910E+00
 time step......................   1.45580E-03
 kinetic energy.................   1.24249E+00
 internal energy................   3.42617E-01
 stonewall energy...............   0.00000E+00 wall# 1
 spring and damper energy.......   4.00000E-20
 hourglass energy ..............   1.54594E-02
 system damping energy..........   0.00000E+00
 sliding interface energy.......   1.45544E-02
 external work..................   1.61374E+00
 eroded kinetic energy..........   0.00000E+00
 eroded internal energy.........   0.00000E+00
 eroded hourglass energy........   0.00000E+00
 total energy...................   1.61512E+00
 total energy / initial energy..   1.00085E+00
 energy ratio w/o eroded energy.   1.00085E+00
 global x velocity..............  -5.92375E-02
 global y velocity..............  -7.44851E-01
 global z velocity..............   5.91125E-02
 time per zone cycle.(nanosec)..             0


 dt of cycle    1168 is controlled by shell      element     379

 time...........................   1.69860E+00
 time step......................   1.45592E-03
 kinetic energy.................   1.44404E+00
 internal energy................   4.65513E-01
 stonewall energy...............   0.00000E+00 wall# 1
 spring and damper energy.......   4.00000E-20
 hourglass energy ..............   1.73280E-02
 system damping energy..........   0.00000E+00
 sliding interface energy.......   2.50709E-02
 external work..................   1.94588E+00
 eroded kinetic energy..........   0.00000E+00
 eroded internal energy.........   0.00000E+00
 eroded hourglass energy........   0.00000E+00
 total energy...................   1.95196E+00
 total energy / initial energy..   1.00312E+00
 energy ratio w/o eroded energy.   1.00312E+00
 global x velocity..............  -6.07648E-02
 global y velocity..............  -8.27474E-01
 global z velocity..............   6.05876E-02
 time per zone cycle.(nanosec)..             0


 dt of cycle    1203 is controlled by shell      element     379

 time...........................   1.74956E+00
 time step......................   1.45599E-03
 kinetic energy.................   1.78744E+00
 internal energy................   6.45085E-01
 stonewall energy...............   0.00000E+00 wall# 1
 spring and damper energy.......   4.00000E-20
 hourglass energy ..............   2.31568E-02
 system damping energy..........   0.00000E+00
 sliding interface energy.......   2.38493E-02
 external work..................   2.47932E+00
 eroded kinetic energy..........   0.00000E+00
 eroded internal energy.........   0.00000E+00
 eroded hourglass energy........   0.00000E+00
 total energy...................   2.47953E+00
 total energy / initial energy..   1.00008E+00
 energy ratio w/o eroded energy.   1.00008E+00
 global x velocity..............  -6.15514E-02
 global y velocity..............  -9.60390E-01
 global z velocity..............   6.13293E-02
 time per zone cycle.(nanosec)..             0


 dt of cycle    1237 is controlled by shell      element     121

 time...........................   1.79906E+00
 time step......................   1.45620E-03
 kinetic energy.................   2.13146E+00
 internal energy................   8.58276E-01
 stonewall energy...............   0.00000E+00 wall# 1
 spring and damper energy.......   4.00000E-20
 hourglass energy ..............   2.75419E-02
 system damping energy..........   0.00000E+00
 sliding interface energy.......   3.32930E-02
 external work..................   3.04605E+00
 eroded kinetic energy..........   0.00000E+00
 eroded internal energy.........   0.00000E+00
 eroded hourglass energy........   0.00000E+00
 total energy...................   3.05057E+00
 total energy / initial energy..   1.00148E+00
 energy ratio w/o eroded energy.   1.00148E+00
 global x velocity..............  -7.15848E-02
 global y velocity..............  -1.10717E+00
 global z velocity..............   7.13037E-02
 time per zone cycle.(nanosec)..             0


 dt of cycle    1271 is controlled by shell      element     121

 time...........................   1.84857E+00
 time step......................   1.45632E-03
 kinetic energy.................   2.62583E+00
 internal energy................   1.12802E+00
 stonewall energy...............   0.00000E+00 wall# 1
 spring and damper energy.......   4.00000E-20
 hourglass energy ..............   3.24682E-02
 system damping energy..........   0.00000E+00
 sliding interface energy.......   4.63559E-02
 external work..................   3.81994E+00
 eroded kinetic energy..........   0.00000E+00
 eroded internal energy.........   0.00000E+00
 eroded hourglass energy........   0.00000E+00
 total energy...................   3.83267E+00
 total energy / initial energy..   1.00333E+00
 energy ratio w/o eroded energy.   1.00333E+00
 global x velocity..............  -9.07657E-02
 global y velocity..............  -1.30084E+00
 global z velocity..............   9.04390E-02
 time per zone cycle.(nanosec)..             0


 dt of cycle    1306 is controlled by shell      element     121

 time...........................   1.89955E+00
 time step......................   1.45644E-03
 kinetic energy.................   3.05368E+00
 internal energy................   1.46451E+00
 stonewall energy...............   0.00000E+00 wall# 1
 spring and damper energy.......   4.00000E-20
 hourglass energy ..............   3.49364E-02
 system damping energy..........   0.00000E+00
 sliding interface energy.......   6.46527E-02
 external work..................   4.59442E+00
 eroded kinetic energy..........   0.00000E+00
 eroded internal energy.........   0.00000E+00
 eroded hourglass energy........   0.00000E+00
 total energy...................   4.61778E+00
 total energy / initial energy..   1.00508E+00
 energy ratio w/o eroded energy.   1.00508E+00
 global x velocity..............  -1.13618E-01
 global y velocity..............  -1.48547E+00
 global z velocity..............   1.13255E-01
 time per zone cycle.(nanosec)..             0


 dt of cycle    1340 is controlled by shell      element     121

 time...........................   1.94907E+00
 time step......................   1.45671E-03
 kinetic energy.................   3.46081E+00
 internal energy................   1.86202E+00
 stonewall energy...............   0.00000E+00 wall# 1
 spring and damper energy.......   4.00000E-20
 hourglass energy ..............   3.65749E-02
 system damping energy..........   0.00000E+00
 sliding interface energy.......   7.65509E-02
 external work..................   5.41305E+00
 eroded kinetic energy..........   0.00000E+00
 eroded internal energy.........   0.00000E+00
 eroded hourglass energy........   0.00000E+00
 total energy...................   5.43595E+00
 total energy / initial energy..   1.00423E+00
 energy ratio w/o eroded energy.   1.00423E+00
 global x velocity..............  -1.30471E-01
 global y velocity..............  -1.67624E+00
 global z velocity..............   1.30068E-01
 time per zone cycle.(nanosec)..             0


 dt of cycle    1374 is controlled by shell      element     121

 time...........................   1.99860E+00
 time step......................   1.45692E-03
 kinetic energy.................   4.04479E+00
 internal energy................   2.33665E+00
 stonewall energy...............   0.00000E+00 wall# 1
 spring and damper energy.......   4.00000E-20
 hourglass energy ..............   3.78888E-02
 system damping energy..........   0.00000E+00
 sliding interface energy.......   8.82195E-02
 external work..................   6.48745E+00
 eroded kinetic energy..........   0.00000E+00
 eroded internal energy.........   0.00000E+00
 eroded hourglass energy........   0.00000E+00
 total energy...................   6.50755E+00
 total energy / initial energy..   1.00310E+00
 energy ratio w/o eroded energy.   1.00310E+00
 global x velocity..............  -1.34570E-01
 global y velocity..............  -1.91620E+00
 global z velocity..............   1.34098E-01
 time per zone cycle.(nanosec)..             0


 dt of cycle    1409 is controlled by shell      element     355

 time...........................   2.04960E+00
 time step......................   1.45709E-03
 kinetic energy.................   4.67109E+00
 internal energy................   2.90134E+00
 stonewall energy...............   0.00000E+00 wall# 1
 spring and damper energy.......   4.00000E-20
 hourglass energy ..............   3.89620E-02
 system damping energy..........   0.00000E+00
 sliding interface energy.......   1.08143E-01
 external work..................   7.69240E+00
 eroded kinetic energy..........   0.00000E+00
 eroded internal energy.........   0.00000E+00
 eroded hourglass energy........   0.00000E+00
 total energy...................   7.71953E+00
 total energy / initial energy..   1.00353E+00
 energy ratio w/o eroded energy.   1.00353E+00
 global x velocity..............  -1.42046E-01
 global y velocity..............  -2.17131E+00
 global z velocity..............   1.41517E-01
 time per zone cycle.(nanosec)..             0


 dt of cycle    1443 is controlled by shell      element     145

 time...........................   2.09915E+00
 time step......................   1.45755E-03
 kinetic energy.................   5.28317E+00
 internal energy................   3.52910E+00
 stonewall energy...............   0.00000E+00 wall# 1
 spring and damper energy.......   4.00000E-20
 hourglass energy ..............   3.97447E-02
 system damping energy..........   0.00000E+00
 sliding interface energy.......   1.20098E-01
 external work..................   8.95082E+00
 eroded kinetic energy..........   0.00000E+00
 eroded internal energy.........   0.00000E+00
 eroded hourglass energy........   0.00000E+00
 total energy...................   8.97212E+00
 total energy / initial energy..   1.00238E+00
 energy ratio w/o eroded energy.   1.00238E+00
 global x velocity..............  -1.55424E-01
 global y velocity..............  -2.42124E+00
 global z velocity..............   1.54877E-01
 time per zone cycle.(nanosec)..             0


 dt of cycle    1477 is controlled by shell      element     145

 time...........................   2.14871E+00
 time step......................   1.45817E-03
 kinetic energy.................   6.12675E+00
 internal energy................   4.21105E+00
 stonewall energy...............   0.00000E+00 wall# 1
 spring and damper energy.......   4.00000E-20
 hourglass energy ..............   4.07127E-02
 system damping energy..........   0.00000E+00
 sliding interface energy.......   1.43694E-01
 external work..................   1.04982E+01
 eroded kinetic energy..........   0.00000E+00
 eroded internal energy.........   0.00000E+00
 eroded hourglass energy........   0.00000E+00
 total energy...................   1.05222E+01
 total energy / initial energy..   1.00228E+00
 energy ratio w/o eroded energy.   1.00228E+00
 global x velocity..............  -1.72451E-01
 global y velocity..............  -2.71517E+00
 global z velocity..............   1.71912E-01
 time per zone cycle.(nanosec)..             0


 dt of cycle    1512 is controlled by shell      element     223

 time...........................   2.19976E+00
 time step......................   1.45900E-03
 kinetic energy.................   6.98627E+00
 internal energy................   4.96491E+00
 stonewall energy...............   0.00000E+00 wall# 1
 spring and damper energy.......   4.00000E-20
 hourglass energy ..............   4.20356E-02
 system damping energy..........   0.00000E+00
 sliding interface energy.......   1.78992E-01
 external work..................   1.21303E+01
 eroded kinetic energy..........   0.00000E+00
 eroded internal energy.........   0.00000E+00
 eroded hourglass energy........   0.00000E+00
 total energy...................   1.21722E+01
 total energy / initial energy..   1.00346E+00
 energy ratio w/o eroded energy.   1.00346E+00
 global x velocity..............  -1.82666E-01
 global y velocity..............  -3.01585E+00
 global z velocity..............   1.82182E-01
 time per zone cycle.(nanosec)..             0


 dt of cycle    1546 is controlled by shell      element     379

 time...........................   2.24938E+00
 time step......................   1.45971E-03
 kinetic energy.................   8.04636E+00
 internal energy................   5.77897E+00
 stonewall energy...............   0.00000E+00 wall# 1
 spring and damper energy.......   4.00000E-20
 hourglass energy ..............   4.71733E-02
 system damping energy..........   0.00000E+00
 sliding interface energy.......   1.99938E-01
 external work..................   1.40353E+01
 eroded kinetic energy..........   0.00000E+00
 eroded internal energy.........   0.00000E+00
 eroded hourglass energy........   0.00000E+00
 total energy...................   1.40724E+01
 total energy / initial energy..   1.00264E+00
 energy ratio w/o eroded energy.   1.00264E+00
 global x velocity..............  -1.91374E-01
 global y velocity..............  -3.34659E+00
 global z velocity..............   1.90967E-01
 time per zone cycle.(nanosec)..             0


 dt of cycle    1580 is controlled by shell      element     379

 time...........................   2.29902E+00
 time step......................   1.46062E-03
 kinetic energy.................   9.26963E+00
 internal energy................   6.65770E+00
 stonewall energy...............   0.00000E+00 wall# 1
 spring and damper energy.......   4.00000E-20
 hourglass energy ..............   5.18157E-02
 system damping energy..........   0.00000E+00
 sliding interface energy.......   2.29890E-01
 external work..................   1.61614E+01
 eroded kinetic energy..........   0.00000E+00
 eroded internal energy.........   0.00000E+00
 eroded hourglass energy........   0.00000E+00
 total energy...................   1.62090E+01
 total energy / initial energy..   1.00295E+00
 energy ratio w/o eroded energy.   1.00295E+00
 global x velocity..............  -2.14459E-01
 global y velocity..............  -3.69939E+00
 global z velocity..............   2.14150E-01
 time per zone cycle.(nanosec)..             0


 dt of cycle    1614 is controlled by shell      element     379

 time...........................   2.34870E+00
 time step......................   1.46152E-03
 kinetic energy.................   1.06272E+01
 internal energy................   7.60220E+00
 stonewall energy...............   0.00000E+00 wall# 1
 spring and damper energy.......   4.00000E-20
 hourglass energy ..............   5.57189E-02
 system damping energy..........   0.00000E+00
 sliding interface energy.......   2.73011E-01
 external work..................   1.84989E+01
 eroded kinetic energy..........   0.00000E+00
 eroded internal energy.........   0.00000E+00
 eroded hourglass energy........   0.00000E+00
 total energy...................   1.85581E+01
 total energy / initial energy..   1.00320E+00
 energy ratio w/o eroded energy.   1.00320E+00
 global x velocity..............  -2.67756E-01
 global y velocity..............  -4.06107E+00
 global z velocity..............   2.67542E-01
 time per zone cycle.(nanosec)..             0


 dt of cycle    1649 is controlled by shell      element     379

 time...........................   2.39988E+00
 time step......................   1.46295E-03
 kinetic energy.................   1.18570E+01
 internal energy................   8.66306E+00
 stonewall energy...............   0.00000E+00 wall# 1
 spring and damper energy.......   4.00000E-20
 hourglass energy ..............   5.70653E-02
 system damping energy..........   0.00000E+00
 sliding interface energy.......   3.16930E-01
 external work..................   2.08272E+01
 eroded kinetic energy..........   0.00000E+00
 eroded internal energy.........   0.00000E+00
 eroded hourglass energy........   0.00000E+00
 total energy...................   2.08940E+01
 total energy / initial energy..   1.00321E+00
 energy ratio w/o eroded energy.   1.00321E+00
 global x velocity..............  -3.54309E-01
 global y velocity..............  -4.38332E+00
 global z velocity..............   3.54141E-01
 time per zone cycle.(nanosec)..             0


 dt of cycle    1683 is controlled by shell      element     404

 time...........................   2.44964E+00
 time step......................   1.46413E-03
 kinetic energy.................   1.33114E+01
 internal energy................   9.80594E+00
 stonewall energy...............   0.00000E+00 wall# 1
 spring and damper energy.......   4.00000E-20
 hourglass energy ..............   5.78824E-02
 system damping energy..........   0.00000E+00
 sliding interface energy.......   3.59072E-01
 external work..................   2.34864E+01
 eroded kinetic energy..........   0.00000E+00
 eroded internal energy.........   0.00000E+00
 eroded hourglass energy........   0.00000E+00
 total energy...................   2.35343E+01
 total energy / initial energy..   1.00204E+00
 energy ratio w/o eroded energy.   1.00204E+00
 global x velocity..............  -4.36818E-01
 global y velocity..............  -4.70850E+00
 global z velocity..............   4.36640E-01
 time per zone cycle.(nanosec)..             0


 dt of cycle    1717 is controlled by shell      element     465

 time...........................   2.49943E+00
 time step......................   1.46500E-03
 kinetic energy.................   1.48531E+01
 internal energy................   1.10570E+01
 stonewall energy...............   0.00000E+00 wall# 1
 spring and damper energy.......   4.00000E-20
 hourglass energy ..............   5.87417E-02
 system damping energy..........   0.00000E+00
 sliding interface energy.......   4.40719E-01
 external work..................   2.63455E+01
 eroded kinetic energy..........   0.00000E+00
 eroded internal energy.........   0.00000E+00
 eroded hourglass energy........   0.00000E+00
 total energy...................   2.64095E+01
 total energy / initial energy..   1.00243E+00
 energy ratio w/o eroded energy.   1.00243E+00
 global x velocity..............  -5.04353E-01
 global y velocity..............  -5.01828E+00
 global z velocity..............   5.04130E-01
 time per zone cycle.(nanosec)..             0


 dt of cycle    1751 is controlled by shell      element     350

 time...........................   2.54926E+00
 time step......................   1.46601E-03
 kinetic energy.................   1.60791E+01
 internal energy................   1.25014E+01
 stonewall energy...............   0.00000E+00 wall# 1
 spring and damper energy.......   4.00000E-20
 hourglass energy ..............   5.96211E-02
 system damping energy..........   0.00000E+00
 sliding interface energy.......   5.27601E-01
 external work..................   2.90920E+01
 eroded kinetic energy..........   0.00000E+00
 eroded internal energy.........   0.00000E+00
 eroded hourglass energy........   0.00000E+00
 total energy...................   2.91677E+01
 total energy / initial energy..   1.00260E+00
 energy ratio w/o eroded energy.   1.00260E+00
 global x velocity..............  -5.73232E-01
 global y velocity..............  -5.23411E+00
 global z velocity..............   5.73047E-01
 time per zone cycle.(nanosec)..             0


 dt of cycle    1785 is controlled by shell      element     318

 time...........................   2.59912E+00
 time step......................   1.46683E-03
 kinetic energy.................   1.72832E+01
 internal energy................   1.41639E+01
 stonewall energy...............   0.00000E+00 wall# 1
 spring and damper energy.......   4.00000E-20
 hourglass energy ..............   6.07454E-02
 system damping energy..........   0.00000E+00
 sliding interface energy.......   6.34439E-01
 external work..................   3.20659E+01
 eroded kinetic energy..........   0.00000E+00
 eroded internal energy.........   0.00000E+00
 eroded hourglass energy........   0.00000E+00
 total energy...................   3.21423E+01
 total energy / initial energy..   1.00238E+00
 energy ratio w/o eroded energy.   1.00238E+00
 global x velocity..............  -6.46771E-01
 global y velocity..............  -5.41868E+00
 global z velocity..............   6.46652E-01
 time per zone cycle.(nanosec)..             0


 dt of cycle    1819 is controlled by shell      element     528

 time...........................   2.64900E+00
 time step......................   1.46769E-03
 kinetic energy.................   1.83205E+01
 internal energy................   1.60722E+01
 stonewall energy...............   0.00000E+00 wall# 1
 spring and damper energy.......   4.00000E-20
 hourglass energy ..............   6.16034E-02
 system damping energy..........   0.00000E+00
 sliding interface energy.......   7.68681E-01
 external work..................   3.51434E+01
 eroded kinetic energy..........   0.00000E+00
 eroded internal energy.........   0.00000E+00
 eroded hourglass energy........   0.00000E+00
 total energy...................   3.52230E+01
 total energy / initial energy..   1.00227E+00
 energy ratio w/o eroded energy.   1.00227E+00
 global x velocity..............  -7.42381E-01
 global y velocity..............  -5.56951E+00
 global z velocity..............   7.42345E-01
 time per zone cycle.(nanosec)..             0


 dt of cycle    1853 is controlled by shell      element     318

 time...........................   2.69892E+00
 time step......................   1.46865E-03
 kinetic energy.................   1.92477E+01
 internal energy................   1.82684E+01
 stonewall energy...............   0.00000E+00 wall# 1
 spring and damper energy.......   4.00000E-20
 hourglass energy ..............   6.24306E-02
 system damping energy..........   0.00000E+00
 sliding interface energy.......   9.34105E-01
 external work..................   3.84256E+01
 eroded kinetic energy..........   0.00000E+00
 eroded internal energy.........   0.00000E+00
 eroded hourglass energy........   0.00000E+00
 total energy...................   3.85126E+01
 total energy / initial energy..   1.00226E+00
 energy ratio w/o eroded energy.   1.00226E+00
 global x velocity..............  -8.51463E-01
 global y velocity..............  -5.69959E+00
 global z velocity..............   8.51489E-01
 time per zone cycle.(nanosec)..             0


 dt of cycle    1887 is controlled by shell      element     318

 time...........................   2.74887E+00
 time step......................   1.46975E-03
 kinetic energy.................   1.98902E+01
 internal energy................   2.07833E+01
 stonewall energy...............   0.00000E+00 wall# 1
 spring and damper energy.......   4.00000E-20
 hourglass energy ..............   6.32529E-02
 system damping energy..........   0.00000E+00
 sliding interface energy.......   1.14097E+00
 external work..................   4.17735E+01
 eroded kinetic energy..........   0.00000E+00
 eroded internal energy.........   0.00000E+00
 eroded hourglass energy........   0.00000E+00
 total energy...................   4.18777E+01
 total energy / initial energy..   1.00249E+00
 energy ratio w/o eroded energy.   1.00249E+00
 global x velocity..............  -9.69959E-01
 global y velocity..............  -5.77531E+00
 global z velocity..............   9.70006E-01
 time per zone cycle.(nanosec)..             0


 dt of cycle    1921 is controlled by shell      element     318

 time...........................   2.79886E+00
 time step......................   1.47104E-03
 kinetic energy.................   2.02057E+01
 internal energy................   2.36485E+01
 stonewall energy...............   0.00000E+00 wall# 1
 spring and damper energy.......   4.00000E-20
 hourglass energy ..............   6.41342E-02
 system damping energy..........   0.00000E+00
 sliding interface energy.......   1.37436E+00
 external work..................   4.51946E+01
 eroded kinetic energy..........   0.00000E+00
 eroded internal energy.........   0.00000E+00
 eroded hourglass energy........   0.00000E+00
 total energy...................   4.52927E+01
 total energy / initial energy..   1.00217E+00
 energy ratio w/o eroded energy.   1.00217E+00
 global x velocity..............  -1.08677E+00
 global y velocity..............  -5.79821E+00
 global z velocity..............   1.08684E+00
 time per zone cycle.(nanosec)..             0


 dt of cycle    1955 is controlled by shell      element     318

 time...........................   2.84890E+00
 time step......................   1.47248E-03
 kinetic energy.................   2.05141E+01
 internal energy................   2.68620E+01
 stonewall energy...............   0.00000E+00 wall# 1
 spring and damper energy.......   4.00000E-20
 hourglass energy ..............   6.48439E-02
 system damping energy..........   0.00000E+00
 sliding interface energy.......   1.65032E+00
 external work..................   4.89944E+01
 eroded kinetic energy..........   0.00000E+00
 eroded internal energy.........   0.00000E+00
 eroded hourglass energy........   0.00000E+00
 total energy...................   4.90912E+01
 total energy / initial energy..   1.00198E+00
 energy ratio w/o eroded energy.   1.00198E+00
 global x velocity..............  -1.18125E+00
 global y velocity..............  -5.79860E+00
 global z velocity..............   1.18129E+00
 time per zone cycle.(nanosec)..             0


 dt of cycle    1989 is controlled by shell      element     528

 time...........................   2.89899E+00
 time step......................   1.47400E-03
 kinetic energy.................   2.05135E+01
 internal energy................   3.04135E+01
 stonewall energy...............   0.00000E+00 wall# 1
 spring and damper energy.......   4.00000E-20
 hourglass energy ..............   6.55059E-02
 system damping energy..........   0.00000E+00
 sliding interface energy.......   1.96510E+00
 external work..................   5.28411E+01
 eroded kinetic energy..........   0.00000E+00
 eroded internal energy.........   0.00000E+00
 eroded hourglass energy........   0.00000E+00
 total energy...................   5.29576E+01
 total energy / initial energy..   1.00221E+00
 energy ratio w/o eroded energy.   1.00221E+00
 global x velocity..............  -1.26458E+00
 global y velocity..............  -5.75883E+00
 global z velocity..............   1.26449E+00
 time per zone cycle.(nanosec)..             0


 dt of cycle    2023 is controlled by shell      element     528

 time...........................   2.94913E+00
 time step......................   1.47561E-03
 kinetic energy.................   2.07727E+01
 internal energy................   3.41381E+01
 stonewall energy...............   0.00000E+00 wall# 1
 spring and damper energy.......   4.00000E-20
 hourglass energy ..............   6.78155E-02
 system damping energy..........   0.00000E+00
 sliding interface energy.......   2.24093E+00
 external work..................   5.70978E+01
 eroded kinetic energy..........   0.00000E+00
 eroded internal energy.........   0.00000E+00
 eroded hourglass energy........   0.00000E+00
 total energy...................   5.72196E+01
 total energy / initial energy..   1.00213E+00
 energy ratio w/o eroded energy.   1.00213E+00
 global x velocity..............  -1.36134E+00
 global y velocity..............  -5.88626E+00
 global z velocity..............   1.36116E+00
 time per zone cycle.(nanosec)..             0


 dt of cycle    2057 is controlled by shell      element     528

 time...........................   2.99933E+00
 time step......................   1.47720E-03
 kinetic energy.................   2.08139E+01
 internal energy................   3.81796E+01
 stonewall energy...............   0.00000E+00 wall# 1
 spring and damper energy.......   4.00000E-20
 hourglass energy ..............   7.08614E-02
 system damping energy..........   0.00000E+00
 sliding interface energy.......   2.62479E+00
 external work..................   6.15513E+01
 eroded kinetic energy..........   0.00000E+00
 eroded internal energy.........   0.00000E+00
 eroded hourglass energy........   0.00000E+00
 total energy...................   6.16892E+01
 total energy / initial energy..   1.00224E+00
 energy ratio w/o eroded energy.   1.00224E+00
 global x velocity..............  -1.35464E+00
 global y velocity..............  -5.75523E+00
 global z velocity..............   1.35509E+00
 time per zone cycle.(nanosec)..             0


 dt of cycle    2091 is controlled by shell      element     510

 time...........................   3.04958E+00
 time step......................   1.47890E-03
 kinetic energy.................   2.07746E+01
 internal energy................   4.26111E+01
 stonewall energy...............   0.00000E+00 wall# 1
 spring and damper energy.......   4.00000E-20
 hourglass energy ..............   7.51354E-02
 system damping energy..........   0.00000E+00
 sliding interface energy.......   2.97136E+00
 external work..................   6.62755E+01
 eroded kinetic energy..........   0.00000E+00
 eroded internal energy.........   0.00000E+00
 eroded hourglass energy........   0.00000E+00
 total energy...................   6.64322E+01
 total energy / initial energy..   1.00236E+00
 energy ratio w/o eroded energy.   1.00236E+00
 global x velocity..............  -1.35547E+00
 global y velocity..............  -5.82036E+00
 global z velocity..............   1.35583E+00
 time per zone cycle.(nanosec)..             0


 dt of cycle    2125 is controlled by shell      element     528

 time...........................   3.09990E+00
 time step......................   1.48058E-03
 kinetic energy.................   2.04928E+01
 internal energy................   4.74610E+01
 stonewall energy...............   0.00000E+00 wall# 1
 spring and damper energy.......   4.00000E-20
 hourglass energy ..............   7.99347E-02
 system damping energy..........   0.00000E+00
 sliding interface energy.......   3.38873E+00
 external work..................   7.12633E+01
 eroded kinetic energy..........   0.00000E+00
 eroded internal energy.........   0.00000E+00
 eroded hourglass energy........   0.00000E+00
 total energy...................   7.14225E+01
 total energy / initial energy..   1.00223E+00
 energy ratio w/o eroded energy.   1.00223E+00
 global x velocity..............  -1.34343E+00
 global y velocity..............  -5.74806E+00
 global z velocity..............   1.34366E+00
 time per zone cycle.(nanosec)..             0


 dt of cycle    2158 is controlled by shell      element     528

 time...........................   3.14878E+00
 time step......................   1.48224E-03
 kinetic energy.................   2.06158E+01
 internal energy................   5.25686E+01
 stonewall energy...............   0.00000E+00 wall# 1
 spring and damper energy.......   4.00000E-20
 hourglass energy ..............   8.41315E-02
 system damping energy..........   0.00000E+00
 sliding interface energy.......   3.86795E+00
 external work..................   7.69527E+01
 eroded kinetic energy..........   0.00000E+00
 eroded internal energy.........   0.00000E+00
 eroded hourglass energy........   0.00000E+00
 total energy...................   7.71364E+01
 total energy / initial energy..   1.00239E+00
 energy ratio w/o eroded energy.   1.00239E+00
 global x velocity..............  -1.31734E+00
 global y velocity..............  -5.64991E+00
 global z velocity..............   1.31721E+00
 time per zone cycle.(nanosec)..             0


 dt of cycle    2192 is controlled by shell      element     528

 time...........................   3.19921E+00
 time step......................   1.48396E-03
 kinetic energy.................   2.03385E+01
 internal energy................   5.82471E+01
 stonewall energy...............   0.00000E+00 wall# 1
 spring and damper energy.......   4.00000E-20
 hourglass energy ..............   8.81848E-02
 system damping energy..........   0.00000E+00
 sliding interface energy.......   4.38261E+00
 external work..................   8.28406E+01
 eroded kinetic energy..........   0.00000E+00
 eroded internal energy.........   0.00000E+00
 eroded hourglass energy........   0.00000E+00
 total energy...................   8.30564E+01
 total energy / initial energy..   1.00260E+00
 energy ratio w/o eroded energy.   1.00260E+00
 global x velocity..............  -1.32999E+00
 global y velocity..............  -5.56693E+00
 global z velocity..............   1.32968E+00
 time per zone cycle.(nanosec)..             0


 dt of cycle    2226 is controlled by shell      element     528

 time...........................   3.24969E+00
 time step......................   1.48566E-03
 kinetic energy.................   2.01542E+01
 internal energy................   6.44161E+01
 stonewall energy...............   0.00000E+00 wall# 1
 spring and damper energy.......   4.00000E-20
 hourglass energy ..............   9.15450E-02
 system damping energy..........   0.00000E+00
 sliding interface energy.......   4.91949E+00
 external work..................   8.93576E+01
 eroded kinetic energy..........   0.00000E+00
 eroded internal energy.........   0.00000E+00
 eroded hourglass energy........   0.00000E+00
 total energy...................   8.95814E+01
 total energy / initial energy..   1.00250E+00
 energy ratio w/o eroded energy.   1.00250E+00
 global x velocity..............  -1.35089E+00
 global y velocity..............  -5.50792E+00
 global z velocity..............   1.35029E+00
 time per zone cycle.(nanosec)..             0


 dt of cycle    2259 is controlled by shell      element     528

 time...........................   3.29874E+00
 time step......................   1.48742E-03
 kinetic energy.................   2.17137E+01
 internal energy................   7.07575E+01
 stonewall energy...............   0.00000E+00 wall# 1
 spring and damper energy.......   4.00000E-20
 hourglass energy ..............   1.03142E-01
 system damping energy..........   0.00000E+00
 sliding interface energy.......   5.42652E+00
 external work..................   9.77189E+01
 eroded kinetic energy..........   0.00000E+00
 eroded internal energy.........   0.00000E+00
 eroded hourglass energy........   0.00000E+00
 total energy...................   9.80009E+01
 total energy / initial energy..   1.00289E+00
 energy ratio w/o eroded energy.   1.00289E+00
 global x velocity..............  -1.38863E+00
 global y velocity..............  -5.78624E+00
 global z velocity..............   1.38679E+00
 time per zone cycle.(nanosec)..             0


 dt of cycle    2293 is controlled by shell      element     528

 time...........................   3.34935E+00
 time step......................   1.48934E-03
 kinetic energy.................   2.25663E+01
 internal energy................   7.75189E+01
 stonewall energy...............   0.00000E+00 wall# 1
 spring and damper energy.......   4.00000E-20
 hourglass energy ..............   1.17714E-01
 system damping energy..........   0.00000E+00
 sliding interface energy.......   5.95086E+00
 external work..................   1.05850E+02
 eroded kinetic energy..........   0.00000E+00
 eroded internal energy.........   0.00000E+00
 eroded hourglass energy........   0.00000E+00
 total energy...................   1.06154E+02
 total energy / initial energy..   1.00287E+00
 energy ratio w/o eroded energy.   1.00287E+00
 global x velocity..............  -1.43396E+00
 global y velocity..............  -6.12991E+00
 global z velocity..............   1.43201E+00
 time per zone cycle.(nanosec)..             0


 dt of cycle    2326 is controlled by shell      element     528

 time...........................   3.39852E+00
 time step......................   1.49096E-03
 kinetic energy.................   2.33762E+01
 internal energy................   8.46470E+01
 stonewall energy...............   0.00000E+00 wall# 1
 spring and damper energy.......   4.00000E-20
 hourglass energy ..............   1.26702E-01
 system damping energy..........   0.00000E+00
 sliding interface energy.......   6.59639E+00
 external work..................   1.14461E+02
 eroded kinetic energy..........   0.00000E+00
 eroded internal energy.........   0.00000E+00
 eroded hourglass energy........   0.00000E+00
 total energy...................   1.14746E+02
 total energy / initial energy..   1.00249E+00
 energy ratio w/o eroded energy.   1.00249E+00
 global x velocity..............  -1.48354E+00
 global y velocity..............  -5.99501E+00
 global z velocity..............   1.48184E+00
 time per zone cycle.(nanosec)..             0


 dt of cycle    2360 is controlled by shell      element     528

 time...........................   3.44925E+00
 time step......................   1.49310E-03
 kinetic energy.................   2.42602E+01
 internal energy................   9.25232E+01
 stonewall energy...............   0.00000E+00 wall# 1
 spring and damper energy.......   4.00000E-20
 hourglass energy ..............   1.34031E-01
 system damping energy..........   0.00000E+00
 sliding interface energy.......   7.23014E+00
 external work..................   1.23859E+02
 eroded kinetic energy..........   0.00000E+00
 eroded internal energy.........   0.00000E+00
 eroded hourglass energy........   0.00000E+00
 total energy...................   1.24148E+02
 total energy / initial energy..   1.00233E+00
 energy ratio w/o eroded energy.   1.00233E+00
 global x velocity..............  -1.62726E+00
 global y velocity..............  -6.16276E+00
 global z velocity..............   1.62559E+00
 time per zone cycle.(nanosec)..             0


 dt of cycle    2393 is controlled by shell      element     528

 time...........................   3.49856E+00
 time step......................   1.49575E-03
 kinetic energy.................   2.63929E+01
 internal energy................   1.00625E+02
 stonewall energy...............   0.00000E+00 wall# 1
 spring and damper energy.......   4.00000E-20
 hourglass energy ..............   1.43293E-01
 system damping energy..........   0.00000E+00
 sliding interface energy.......   8.05313E+00
 external work..................   1.34839E+02
 eroded kinetic energy..........   0.00000E+00
 eroded internal energy.........   0.00000E+00
 eroded hourglass energy........   0.00000E+00
 total energy...................   1.35215E+02
 total energy / initial energy..   1.00279E+00
 energy ratio w/o eroded energy.   1.00279E+00
 global x velocity..............  -1.69487E+00
 global y velocity..............  -6.49589E+00
 global z velocity..............   1.69340E+00
 time per zone cycle.(nanosec)..             0


 dt of cycle    2427 is controlled by shell      element     528

 time...........................   3.54946E+00
 time step......................   1.49843E-03
 kinetic energy.................   2.72913E+01
 internal energy................   1.09486E+02
 stonewall energy...............   0.00000E+00 wall# 1
 spring and damper energy.......   4.00000E-20
 hourglass energy ..............   1.64432E-01
 system damping energy..........   0.00000E+00
 sliding interface energy.......   9.01105E+00
 external work..................   1.45468E+02
 eroded kinetic energy..........   0.00000E+00
 eroded internal energy.........   0.00000E+00
 eroded hourglass energy........   0.00000E+00
 total energy...................   1.45953E+02
 total energy / initial energy..   1.00334E+00
 energy ratio w/o eroded energy.   1.00334E+00
 global x velocity..............  -1.78748E+00
 global y velocity..............  -6.66066E+00
 global z velocity..............   1.78595E+00
 time per zone cycle.(nanosec)..             0


 dt of cycle    2460 is controlled by shell      element     528

 time...........................   3.59895E+00
 time step......................   1.50080E-03
 kinetic energy.................   2.85773E+01
 internal energy................   1.18674E+02
 stonewall energy...............   0.00000E+00 wall# 1
 spring and damper energy.......   4.00000E-20
 hourglass energy ..............   1.78463E-01
 system damping energy..........   0.00000E+00
 sliding interface energy.......   9.70722E+00
 external work..................   1.56754E+02
 eroded kinetic energy..........   0.00000E+00
 eroded internal energy.........   0.00000E+00
 eroded hourglass energy........   0.00000E+00
 total energy...................   1.57137E+02
 total energy / initial energy..   1.00244E+00
 energy ratio w/o eroded energy.   1.00244E+00
 global x velocity..............  -1.92086E+00
 global y velocity..............  -6.88248E+00
 global z velocity..............   1.91919E+00
 time per zone cycle.(nanosec)..             0


 dt of cycle    2493 is controlled by shell      element     528

 time...........................   3.64852E+00
 time step......................   1.50369E-03
 kinetic energy.................   3.19131E+01
 internal energy................   1.27438E+02
 stonewall energy...............   0.00000E+00 wall# 1
 spring and damper energy.......   4.00000E-20
 hourglass energy ..............   1.87223E-01
 system damping energy..........   0.00000E+00
 sliding interface energy.......   1.05869E+01
 external work..................   1.69737E+02
 eroded kinetic energy..........   0.00000E+00
 eroded internal energy.........   0.00000E+00
 eroded hourglass energy........   0.00000E+00
 total energy...................   1.70125E+02
 total energy / initial energy..   1.00229E+00
 energy ratio w/o eroded energy.   1.00229E+00
 global x velocity..............  -2.01512E+00
 global y velocity..............  -7.56009E+00
 global z velocity..............   2.01446E+00
 time per zone cycle.(nanosec)..             0


 dt of cycle    2527 is controlled by shell      element     528

 time...........................   3.69970E+00
 time step......................   1.50718E-03
 kinetic energy.................   3.45159E+01
 internal energy................   1.36795E+02
 stonewall energy...............   0.00000E+00 wall# 1
 spring and damper energy.......   4.00000E-20
 hourglass energy ..............   1.93440E-01
 system damping energy..........   0.00000E+00
 sliding interface energy.......   1.17080E+01
 external work..................   1.82738E+02
 eroded kinetic energy..........   0.00000E+00
 eroded internal energy.........   0.00000E+00
 eroded hourglass energy........   0.00000E+00
 total energy...................   1.83212E+02
 total energy / initial energy..   1.00259E+00
 energy ratio w/o eroded energy.   1.00259E+00
 global x velocity..............  -2.18121E+00
 global y velocity..............  -7.81640E+00
 global z velocity..............   2.18275E+00
 time per zone cycle.(nanosec)..             0


 dt of cycle    2560 is controlled by shell      element     492

 time...........................   3.74950E+00
 time step......................   1.51097E-03
 kinetic energy.................   3.62322E+01
 internal energy................   1.46342E+02
 stonewall energy...............   0.00000E+00 wall# 1
 spring and damper energy.......   4.00000E-20
 hourglass energy ..............   1.98356E-01
 system damping energy..........   0.00000E+00
 sliding interface energy.......   1.28738E+01
 external work..................   1.95129E+02
 eroded kinetic energy..........   0.00000E+00
 eroded internal energy.........   0.00000E+00
 eroded hourglass energy........   0.00000E+00
 total energy...................   1.95646E+02
 total energy / initial energy..   1.00265E+00
 energy ratio w/o eroded energy.   1.00265E+00
 global x velocity..............  -2.39676E+00
 global y velocity..............  -7.96938E+00
 global z velocity..............   2.39906E+00
 time per zone cycle.(nanosec)..             0


 dt of cycle    2593 is controlled by shell      element     450

 time...........................   3.79942E+00
 time step......................   1.51485E-03
 kinetic energy.................   3.81892E+01
 internal energy................   1.56267E+02
 stonewall energy...............   0.00000E+00 wall# 1
 spring and damper energy.......   4.00000E-20
 hourglass energy ..............   2.03179E-01
 system damping energy..........   0.00000E+00
 sliding interface energy.......   1.42308E+01
 external work..................   2.08325E+02
 eroded kinetic energy..........   0.00000E+00
 eroded internal energy.........   0.00000E+00
 eroded hourglass energy........   0.00000E+00
 total energy...................   2.08890E+02
 total energy / initial energy..   1.00271E+00
 energy ratio w/o eroded energy.   1.00271E+00
 global x velocity..............  -2.50563E+00
 global y velocity..............  -8.16160E+00
 global z velocity..............   2.50872E+00
 time per zone cycle.(nanosec)..          6882


 dt of cycle    2626 is controlled by shell      element     492

 time...........................   3.84948E+00
 time step......................   1.51924E-03
 kinetic energy.................   4.17852E+01
 internal energy................   1.65467E+02
 stonewall energy...............   0.00000E+00 wall# 1
 spring and damper energy.......   4.00000E-20
 hourglass energy ..............   2.17659E-01
 system damping energy..........   0.00000E+00
 sliding interface energy.......   1.51513E+01
 external work..................   2.22138E+02
 eroded kinetic energy..........   0.00000E+00
 eroded internal energy.........   0.00000E+00
 eroded hourglass energy........   0.00000E+00
 total energy...................   2.22621E+02
 total energy / initial energy..   1.00217E+00
 energy ratio w/o eroded energy.   1.00217E+00
 global x velocity..............  -2.55727E+00
 global y velocity..............  -8.96027E+00
 global z velocity..............   2.55997E+00
 time per zone cycle.(nanosec)..          6882


 dt of cycle    2659 is controlled by shell      element     528

 time...........................   3.89968E+00
 time step......................   1.52358E-03
 kinetic energy.................   4.37042E+01
 internal energy................   1.75005E+02
 stonewall energy...............   0.00000E+00 wall# 1
 spring and damper energy.......   4.00000E-20
 hourglass energy ..............   2.27403E-01
 system damping energy..........   0.00000E+00
 sliding interface energy.......   1.64268E+01
 external work..................   2.34908E+02
 eroded kinetic energy..........   0.00000E+00
[...]
 hourglass energy ..............   4.57815E-01
 system damping energy..........   0.00000E+00
 sliding interface energy.......   5.63327E+01
 external work..................   4.46522E+02
 eroded kinetic energy..........   0.00000E+00
 eroded internal energy.........   0.00000E+00
 eroded hourglass energy........   0.00000E+00
 total energy...................   4.47202E+02
 total energy / initial energy..   1.00152E+00
 energy ratio w/o eroded energy.   1.00152E+00
 global x velocity..............  -8.77770E-01
 global y velocity..............  -8.81786E+00
 global z velocity..............   8.77005E-01
 time per zone cycle.(nanosec)..             0


 dt of cycle    3413 is controlled by shell      element     397

 time...........................   5.09924E+00
 time step......................   1.63524E-03
 kinetic energy.................   2.36830E+01
 internal energy................   3.68887E+02
 stonewall energy...............   0.00000E+00 wall# 1
 spring and damper energy.......   4.00000E-20
 hourglass energy ..............   4.68691E-01
 system damping energy..........   0.00000E+00
 sliding interface energy.......   5.77897E+01
 external work..................   4.50228E+02
 eroded kinetic energy..........   0.00000E+00
 eroded internal energy.........   0.00000E+00
 eroded hourglass energy........   0.00000E+00
 total energy...................   4.50829E+02
 total energy / initial energy..   1.00133E+00
 energy ratio w/o eroded energy.   1.00133E+00
 global x velocity..............  -9.18199E-01
 global y velocity..............  -8.33125E+00
 global z velocity..............   9.18174E-01
 time per zone cycle.(nanosec)..             0


 dt of cycle    3444 is controlled by shell      element     397

 time...........................   5.14991E+00
 time step......................   1.63359E-03
 kinetic energy.................   2.08787E+01
 internal energy................   3.72840E+02
 stonewall energy...............   0.00000E+00 wall# 1
 spring and damper energy.......   4.00000E-20
 hourglass energy ..............   4.80570E-01
 system damping energy..........   0.00000E+00
 sliding interface energy.......   5.92630E+01
 external work..................   4.52739E+02
 eroded kinetic energy..........   0.00000E+00
 eroded internal energy.........   0.00000E+00
 eroded hourglass energy........   0.00000E+00
 total energy...................   4.53462E+02
 total energy / initial energy..   1.00160E+00
 energy ratio w/o eroded energy.   1.00160E+00
 global x velocity..............  -8.42776E-01
 global y velocity..............  -7.95559E+00
 global z velocity..............   8.40851E-01
 time per zone cycle.(nanosec)..             0


 dt of cycle    3474 is controlled by shell      element     397

 time...........................   5.19893E+00
 time step......................   1.63410E-03
 kinetic energy.................   1.81662E+01
 internal energy................   3.77084E+02
 stonewall energy...............   0.00000E+00 wall# 1
 spring and damper energy.......   4.00000E-20
 hourglass energy ..............   4.90662E-01
 system damping energy..........   0.00000E+00
 sliding interface energy.......   6.02811E+01
 external work..................   4.55377E+02
 eroded kinetic energy..........   0.00000E+00
 eroded internal energy.........   0.00000E+00
 eroded hourglass energy........   0.00000E+00
 total energy...................   4.56022E+02
 total energy / initial energy..   1.00142E+00
 energy ratio w/o eroded energy.   1.00142E+00
 global x velocity..............  -7.03732E-01
 global y velocity..............  -7.54658E+00
 global z velocity..............   7.03414E-01
 time per zone cycle.(nanosec)..             0


 dt of cycle    3505 is controlled by shell      element     397

 time...........................   5.24958E+00
 time step......................   1.63350E-03
 kinetic energy.................   1.68110E+01
 internal energy................   3.79895E+02
 stonewall energy...............   0.00000E+00 wall# 1
 spring and damper energy.......   4.00000E-20
 hourglass energy ..............   5.00688E-01
 system damping energy..........   0.00000E+00
 sliding interface energy.......   6.12255E+01
 external work..................   4.57780E+02
 eroded kinetic energy..........   0.00000E+00
 eroded internal energy.........   0.00000E+00
 eroded hourglass energy........   0.00000E+00
 total energy...................   4.58432E+02
 total energy / initial energy..   1.00142E+00
 energy ratio w/o eroded energy.   1.00142E+00
 global x velocity..............  -5.48058E-01
 global y velocity..............  -7.20649E+00
 global z velocity..............   5.48185E-01
 time per zone cycle.(nanosec)..             0


 dt of cycle    3535 is controlled by shell      element     397

 time...........................   5.29858E+00
 time step......................   1.63324E-03
 kinetic energy.................   1.45617E+01
 internal energy................   3.82829E+02
 stonewall energy...............   0.00000E+00 wall# 1
 spring and damper energy.......   4.00000E-20
 hourglass energy ..............   5.08690E-01
 system damping energy..........   0.00000E+00
 sliding interface energy.......   6.17715E+01
 external work..................   4.59027E+02
 eroded kinetic energy..........   0.00000E+00
 eroded internal energy.........   0.00000E+00
 eroded hourglass energy........   0.00000E+00
 total energy...................   4.59671E+02
 total energy / initial energy..   1.00140E+00
 energy ratio w/o eroded energy.   1.00140E+00
 global x velocity..............  -5.33351E-01
 global y velocity..............  -7.01379E+00
 global z velocity..............   5.33504E-01
 time per zone cycle.(nanosec)..             0


 dt of cycle    3566 is controlled by shell      element     397

 time...........................   5.34920E+00
 time step......................   1.63333E-03
 kinetic energy.................   1.36577E+01
 internal energy................   3.85508E+02
 stonewall energy...............   0.00000E+00 wall# 1
 spring and damper energy.......   4.00000E-20
 hourglass energy ..............   5.15831E-01
 system damping energy..........   0.00000E+00
 sliding interface energy.......   6.23999E+01
 external work..................   4.61472E+02
 eroded kinetic energy..........   0.00000E+00
 eroded internal energy.........   0.00000E+00
 eroded hourglass energy........   0.00000E+00
 total energy...................   4.62082E+02
 total energy / initial energy..   1.00132E+00
 energy ratio w/o eroded energy.   1.00132E+00
 global x velocity..............  -4.66184E-01
 global y velocity..............  -6.89428E+00
 global z velocity..............   4.65892E-01
 time per zone cycle.(nanosec)..             0


 dt of cycle    3597 is controlled by shell      element     397

 time...........................   5.39983E+00
 time step......................   1.63397E-03
 kinetic energy.................   1.26109E+01
 internal energy................   3.88170E+02
 stonewall energy...............   9.26038E-02 wall# 1
 spring and damper energy.......   4.00000E-20
 hourglass energy ..............   5.22018E-01
 system damping energy..........   0.00000E+00
 sliding interface energy.......   6.31859E+01
 external work..................   4.63801E+02
 eroded kinetic energy..........   0.00000E+00
 eroded internal energy.........   0.00000E+00
 eroded hourglass energy........   0.00000E+00
 total energy...................   4.64581E+02
 total energy / initial energy..   1.00168E+00
 energy ratio w/o eroded energy.   1.00168E+00
 global x velocity..............  -5.36018E-01
 global y velocity..............  -5.12453E+00
 global z velocity..............   5.38413E-01
 time per zone cycle.(nanosec)..             0


 dt of cycle    3627 is controlled by shell      element     397

 time...........................   5.44883E+00
 time step......................   1.63271E-03
 kinetic energy.................   9.89968E+00
 internal energy................   3.90428E+02
 stonewall energy...............   9.26038E-02 wall# 1
 spring and damper energy.......   4.00000E-20
 hourglass energy ..............   5.28137E-01
 system damping energy..........   0.00000E+00
 sliding interface energy.......   6.34868E+01
 external work..................   4.63671E+02
 eroded kinetic energy..........   0.00000E+00
 eroded internal energy.........   0.00000E+00
 eroded hourglass energy........   0.00000E+00
 total energy...................   4.64435E+02
 total energy / initial energy..   1.00165E+00
 energy ratio w/o eroded energy.   1.00165E+00
 global x velocity..............  -4.48999E-01
 global y velocity..............  -5.18842E+00
 global z velocity..............   4.49999E-01
 time per zone cycle.(nanosec)..          6882


 dt of cycle    3658 is controlled by shell      element     397

 time...........................   5.49944E+00
 time step......................   1.63236E-03
 kinetic energy.................   8.15045E+00
 internal energy................   3.92046E+02
 stonewall energy...............   9.26038E-02 wall# 1
 spring and damper energy.......   4.00000E-20
 hourglass energy ..............   5.35502E-01
 system damping energy..........   0.00000E+00
 sliding interface energy.......   6.38929E+01
 external work..................   4.63983E+02
 eroded kinetic energy..........   0.00000E+00
 eroded internal energy.........   0.00000E+00
 eroded hourglass energy........   0.00000E+00
 total energy...................   4.64717E+02
 total energy / initial energy..   1.00158E+00
 energy ratio w/o eroded energy.   1.00158E+00
 global x velocity..............  -2.15702E-01
 global y velocity..............  -5.20442E+00
 global z velocity..............   2.17584E-01
 time per zone cycle.(nanosec)..             0


 dt of cycle    3688 is controlled by shell      element     397

 time...........................   5.54841E+00
 time step......................   1.63198E-03
 kinetic energy.................   6.62590E+00
 internal energy................   3.93509E+02
 stonewall energy...............   9.26038E-02 wall# 1
 spring and damper energy.......   4.00000E-20
 hourglass energy ..............   5.41762E-01
 system damping energy..........   0.00000E+00
 sliding interface energy.......   6.43446E+01
 external work..................   4.64406E+02
 eroded kinetic energy..........   0.00000E+00
 eroded internal energy.........   0.00000E+00
 eroded hourglass energy........   0.00000E+00
 total energy...................   4.65114E+02
 total energy / initial energy..   1.00152E+00
 energy ratio w/o eroded energy.   1.00152E+00
 global x velocity..............  -1.81379E-01
 global y velocity..............  -4.77298E+00
 global z velocity..............   1.79520E-01
 time per zone cycle.(nanosec)..             0


 dt of cycle    3719 is controlled by shell      element     397

 time...........................   5.59901E+00
 time step......................   1.63247E-03
 kinetic energy.................   6.50090E+00
 internal energy................   3.94956E+02
 stonewall energy...............   9.26038E-02 wall# 1
 spring and damper energy.......   4.00000E-20
 hourglass energy ..............   5.48740E-01
 system damping energy..........   0.00000E+00
 sliding interface energy.......   6.46531E+01
 external work..................   4.66044E+02
 eroded kinetic energy..........   0.00000E+00
 eroded internal energy.........   0.00000E+00
 eroded hourglass energy........   0.00000E+00
 total energy...................   4.66751E+02
 total energy / initial energy..   1.00152E+00
 energy ratio w/o eroded energy.   1.00152E+00
 global x velocity..............  -1.13657E-01
 global y velocity..............  -4.78855E+00
 global z velocity..............   1.12612E-01
 time per zone cycle.(nanosec)..             0


 dt of cycle    3750 is controlled by shell      element     397

 time...........................   5.64963E+00
 time step......................   1.63275E-03
 kinetic energy.................   6.12691E+00
 internal energy................   3.96240E+02
 stonewall energy...............   1.24446E-01 wall# 1
 spring and damper energy.......   4.00000E-20
 hourglass energy ..............   5.53536E-01
 system damping energy..........   0.00000E+00
 sliding interface energy.......   6.50388E+01
 external work..................   4.67517E+02
 eroded kinetic energy..........   0.00000E+00
 eroded internal energy.........   0.00000E+00
 eroded hourglass energy........   0.00000E+00
 total energy...................   4.68084E+02
 total energy / initial energy..   1.00121E+00
 energy ratio w/o eroded energy.   1.00121E+00
 global x velocity..............  -3.02274E-01
 global y velocity..............  -3.08953E+00
 global z velocity..............   2.98777E-01
 time per zone cycle.(nanosec)..             0


 dt of cycle    3780 is controlled by shell      element     397

 time...........................   5.69859E+00
 time step......................   1.63168E-03
 kinetic energy.................   3.80409E+00
 internal energy................   3.97371E+02
 stonewall energy...............   1.24446E-01 wall# 1
 spring and damper energy.......   4.00000E-20
 hourglass energy ..............   5.57870E-01
 system damping energy..........   0.00000E+00
 sliding interface energy.......   6.52647E+01
 external work..................   4.66344E+02
 eroded kinetic energy..........   0.00000E+00
 eroded internal energy.........   0.00000E+00
 eroded hourglass energy........   0.00000E+00
 total energy...................   4.67122E+02
 total energy / initial energy..   1.00167E+00
 energy ratio w/o eroded energy.   1.00167E+00
 global x velocity..............  -2.83444E-01
 global y velocity..............  -2.83232E+00
 global z velocity..............   2.79719E-01
 time per zone cycle.(nanosec)..             0


 dt of cycle    3811 is controlled by shell      element     397

 time...........................   5.74918E+00
 time step......................   1.63181E-03
 kinetic energy.................   1.93003E+00
 internal energy................   3.98361E+02
 stonewall energy...............   1.24446E-01 wall# 1
 spring and damper energy.......   4.00000E-20
 hourglass energy ..............   5.61560E-01
 system damping energy..........   0.00000E+00
 sliding interface energy.......   6.55255E+01
 external work..................   4.65737E+02
 eroded kinetic energy..........   0.00000E+00
 eroded internal energy.........   0.00000E+00
 eroded hourglass energy........   0.00000E+00
 total energy...................   4.66503E+02
 total energy / initial energy..   1.00164E+00
 energy ratio w/o eroded energy.   1.00164E+00
 global x velocity..............  -1.75028E-01
 global y velocity..............  -2.34984E+00
 global z velocity..............   1.71296E-01
 time per zone cycle.(nanosec)..             0


 dt of cycle    3842 is controlled by shell      element     397

 time...........................   5.79975E+00
 time step......................   1.63174E-03
 kinetic energy.................   1.13470E+00
 internal energy................   3.99101E+02
 stonewall energy...............   1.24446E-01 wall# 1
 spring and damper energy.......   4.00000E-20
 hourglass energy ..............   5.64934E-01
 system damping energy..........   0.00000E+00
 sliding interface energy.......   6.56799E+01
 external work..................   4.65849E+02
 eroded kinetic energy..........   0.00000E+00
 eroded internal energy.........   0.00000E+00
 eroded hourglass energy........   0.00000E+00
 total energy...................   4.66605E+02
 total energy / initial energy..   1.00162E+00
 energy ratio w/o eroded energy.   1.00162E+00
 global x velocity..............  -5.41974E-02
 global y velocity..............  -1.99638E+00
 global z velocity..............   5.21705E-02
 time per zone cycle.(nanosec)..             0


 dt of cycle    3872 is controlled by shell      element     397

 time...........................   5.84872E+00
 time step......................   1.63267E-03
 kinetic energy.................   1.46306E+00
 internal energy................   3.99630E+02
 stonewall energy...............   1.24446E-01 wall# 1
 spring and damper energy.......   4.00000E-20
 hourglass energy ..............   5.67942E-01
 system damping energy..........   0.00000E+00
 sliding interface energy.......   6.58211E+01
 external work..................   4.66859E+02
 eroded kinetic energy..........   0.00000E+00
 eroded internal energy.........   0.00000E+00
 eroded hourglass energy........   0.00000E+00
 total energy...................   4.67606E+02
 total energy / initial energy..   1.00160E+00
 energy ratio w/o eroded energy.   1.00160E+00
 global x velocity..............  -2.61513E-02
 global y velocity..............  -1.69577E+00
 global z velocity..............   2.29182E-02
 time per zone cycle.(nanosec)..             0


 dt of cycle    3903 is controlled by shell      element     415

 time...........................   5.89933E+00
 time step......................   1.63292E-03
 kinetic energy.................   2.90946E-01
 internal energy................   4.00012E+02
 stonewall energy...............   2.50889E+00 wall# 1
 spring and damper energy.......   4.00000E-20
 hourglass energy ..............   5.70507E-01
 system damping energy..........   0.00000E+00
 sliding interface energy.......   6.59094E+01
 external work..................   4.68459E+02
 eroded kinetic energy..........   0.00000E+00
 eroded internal energy.........   0.00000E+00
 eroded hourglass energy........   0.00000E+00
 total energy...................   4.69292E+02
 total energy / initial energy..   1.00178E+00
 energy ratio w/o eroded energy.   1.00178E+00
 global x velocity..............  -1.12418E-01
 global y velocity..............  -8.96513E-01
 global z velocity..............   1.09070E-01
 time per zone cycle.(nanosec)..             0


 dt of cycle    3934 is controlled by shell      element     415

 time...........................   5.94995E+00
 time step......................   1.63299E-03
 kinetic energy.................   9.82285E-01
 internal energy................   4.00223E+02
 stonewall energy...............   1.92434E-01 wall# 1
 spring and damper energy.......   4.00000E-20
 hourglass energy ..............   5.72792E-01
 system damping energy..........   0.00000E+00
 sliding interface energy.......   6.59423E+01
 external work..................   4.67057E+02
 eroded kinetic energy..........   0.00000E+00
 eroded internal energy.........   0.00000E+00
 eroded hourglass energy........   0.00000E+00
 total energy...................   4.67913E+02
 total energy / initial energy..   1.00183E+00
 energy ratio w/o eroded energy.   1.00183E+00
 global x velocity..............  -1.39858E-01
 global y velocity..............   1.44999E-01
 global z velocity..............   1.39139E-01
 time per zone cycle.(nanosec)..             0


 dt of cycle    3964 is controlled by shell      element     397

 time...........................   5.99893E+00
 time step......................   1.63273E-03
 kinetic energy.................   1.71246E-01
 internal energy................   4.00288E+02
 stonewall energy...............   1.92434E-01 wall# 1
 spring and damper energy.......   4.00000E-20
 hourglass energy ..............   5.76560E-01
 system damping energy..........   0.00000E+00
 sliding interface energy.......   6.59297E+01
 external work..................   4.66313E+02
 eroded kinetic energy..........   0.00000E+00
 eroded internal energy.........   0.00000E+00
 eroded hourglass energy........   0.00000E+00
 total energy...................   4.67158E+02
 total energy / initial energy..   1.00181E+00
 energy ratio w/o eroded energy.   1.00181E+00
 global x velocity..............   3.14103E-02
 global y velocity..............   2.41199E-01
 global z velocity..............  -3.13134E-02
 time per zone cycle.(nanosec)..             0
