*KEYWORD
*TITLE
Hemispherical Deep Draw
*CONTROL_TERMINATION
$        f         i         f         f         f
$   endtim    endcyc     dtmin    endneg    endmas
 6.000E+00
*CONTROL_CONTACT
$        f         f         i         i         i         i         i
$   slsfac    rwpnal    islchk    shlthk    penopt    thkchg     orien
                 1.0                   1
$        i         i         i         i         f
$   usrstr    usrfac     nsbcs    interm    xpenen
    
*CONTACT_FORMING_ONE_WAY_SURFACE_TO_SURFACE
$        i         i         i         i         i         i         i         i
$     ssid      msid     sstyp     mstyp    sboxid    mboxid       spr       mpr
         1         2         3         3
$        f         f         f         f         f         i         f         f
$       fs        fd        dc        vc       vdc    penchk        bt        dt
      0.15      0.15
$        f         f         f         f         f         f         f         f
$      sfs       sfm       sst       mst      sfst      sfmt       fsf       vsf

*CONTACT_FORMING_ONE_WAY_SURFACE_TO_SURFACE
$        i         i         i         i         i         i         i         i
$     ssid      msid     sstyp     mstyp    sboxid    mboxid       spr       mpr
         1         3         3         3
$        f         f         f         f         f         i         f         f
$       fs        fd        dc        vc       vdc    penchk        bt        dt
      0.15      0.15
$        f         f         f         f         f         f         f         f
$      sfs       sfm       sst       mst      sfst      sfmt       fsf       vsf

*CONTACT_FORMING_ONE_WAY_SURFACE_TO_SURFACE
$        i         i         i         i         i         i         i         i
$     ssid      msid     sstyp     mstyp    sboxid    mboxid       spr       mpr
         1         4         3         3
$        f         f         f         f         f         i         f         f
$       fs        fd        dc        vc       vdc    penchk        bt        dt
      0.15      0.15
$        f         f         f         f         f         f         f         f
$      sfs       sfm       sst       mst      sfst      sfmt       fsf       vsf

*CONTROL_OUTPUT
$        i         i         i         i         f         i         i
$    npopt    neecho    nrefup    iaccop     opifs    ipnint    ikedit
         0         0         0         0                   2      1000
*DATABASE_BINARY_D3PLOT
$        f         i
$  dt/cycl      lcdt
 2.000E-01
*DATABASE_EXTENT_BINARY
$        i         i         i         i         i         i         i         i
$    neiph     neips    maxint    strflg    sigflg    epsflg    rltflg    engflg
                                       1
$        i         i         i
$   cmpflg    ieverp    beamip

*DATABASE_BINARY_D3THDT
$        f         i
$  dt/cycl      lcdt
 12.00E+00
*DATABASE_HISTORY_NODE
$        i         i         i         i         i         i         i         i
$      id1       id2       id3       id4       id5       id6       id7       id8
         1       101
*DATABASE_RCFORC
$        f         i
$  dt/cycl      lcdt
 5.000E-02
*DATABASE_NODOUT
$        f         i
$  dt/cycl      lcdt
 5.000E-02
*DATABASE_GLSTAT
$        f         i
$  dt/cycl      lcdt
 5.000E-02
*DATABASE_MATSUM
$        f         i
$  dt/cycl      lcdt
 5.000E-02
*DATABASE_RBDOUT
$        f         i
$  dt/cycl      lcdt
 5.000E-02
*CONTROL_ENERGY
$        i         i         i         i
$     hgen      rwen    slnten     rylen 
         2         2         2      
*CONTROL_SHELL
$        f         i         i         i         i         i         i
$   wrpang    itrist     irnxx    istupd    theory       bwc     miter
                                       1
*MAT_POWER_LAW_PLASTICITY
$        f         f         f         f         f         f         f         f
$      mid        ro         e        pr         k         n       src       srp
         1  7.83e-05      69.0     0.300     0.598     0.216       0.0       0.0
*MAT_RIGID
$        f         f         f         f         f         f         f         f
$      mid        ro         e        pr         n    couple         m     alias
         2  7.83e-06      69.0     0.300
$        f         f         f
$      cmo     con1       con2

$        f         f         f         f         f         f
$   lco/a1        a2        a3        v1        v2        3

*SECTION_SHELL
$        i         i         f         f         f         f         i
$      sid    elform      shrf       nip     propt   qr/irid     icomp
         1         2                   5 
$        f         f         f         f         f
$       t1        t2        t3        t4      nloc
       1.0       1.0       1.0       1.0       0.0
*PART
$ c
$ head
 Power Law Plasticity - Workpiece
$        i         i         i         i         i         i
$      pid       sid       mid     eosid      hgid    adpopt
         1         1         1         0         0         0
*PART
$ c
$ head
  Rigid - Punch
$        i         i         i         i         i         i
$      pid       sid       mid     eosid      hgid    adpopt
         2         1         2         0         0         0
*PART
$ c
$ head
  Rigid - Punch
$        i         i         i         i         i         i
$      pid       sid       mid     eosid      hgid    adpopt
         3         1         2         0         0         0
*PART
$ c
$ head
  Rigid - Punch
$        i         i         i         i         i         i
$      pid       sid       mid     eosid      hgid    adpopt
         4         1         2         0         0         0
*NODE
$     i8               f               f               f       i       i   
$   node               x               y               z      tc      rc
       1    0.000000E+00    0.000000E+00    0.000000E+00       6       7
       2    5.833342E+00    0.000000E+00    0.000000E+00       3       4
       3    1.166667E+01    0.000000E+00    0.000000E+00       3       4
       4    1.750001E+01    0.000000E+00    0.000000E+00       3       4
       5    2.333334E+01    0.000000E+00    0.000000E+00       3       4
       6    2.916667E+01    0.000000E+00    0.000000E+00       3       4
       7    3.500000E+01    0.000000E+00    0.000000E+00       3       4
       8    0.000000E+00    0.000000E+00   -5.833342E+00       1       5
       9    5.548584E+00    0.000000E+00   -5.548584E+00       0       0
      10    1.109716E+01    0.000000E+00   -5.263827E+00       0       0
      11    1.664574E+01    0.000000E+00   -4.979070E+00       0       0
      12    2.219431E+01    0.000000E+00   -4.694312E+00       0       0
      13    2.774288E+01    0.000000E+00   -4.409555E+00       0       0
      14    3.329146E+01    0.000000E+00   -4.124798E+00       0       0
      15    0.000000E+00    0.000000E+00   -1.166667E+01       1       5
      16    5.263827E+00    0.000000E+00   -1.109716E+01       0       0
      17    1.052764E+01    0.000000E+00   -1.052764E+01       0       0
      18    1.579146E+01    0.000000E+00   -9.958130E+00       0       0
      19    2.105528E+01    0.000000E+00   -9.388617E+00       0       0
      20    2.631910E+01    0.000000E+00   -8.819100E+00       0       0
$ ... 1579 like lines cut
*ELEMENT_SHELL
$      i       i       i       i       i       i
$    eid     pid      n1      n2      n3      n4
       1       1       1       8       9       2
       2       1       2       9      10       3
       3       1       3      10      11       4
       4       1       4      11      12       5
       5       1       5      12      13       6
       6       1       6      13      14       7
       7       1       8      15      16       9
       8       1       9      16      17      10
       9       1      10      17      18      11
      10       1      11      18      19      12
      11       1      12      19      20      13
      12       1      13      20      21      14
      13       1      15      22      23      16
      14       1      16      23      24      17
      15       1      17      24      25      18
      16       1      18      25      26      19
      17       1      19      26      27      20
      18       1      20      27      28      21
      19       1      22      29      30      23
      20       1      23      30      31      24
$ ... 1432 like lines cut
*DEFINE_CURVE
$        i         i         f         f         f         f
$     lcid      sidr      scla      sclo      offa      offo
         1         0 0.000E+00 0.000E+00 0.000E+00 0.000E+00
$                  f                   f
$                  a                   o
           0.000E+00           0.000E+00
           1.000E+00           1.000E-03
           6.000E+00           1.000E-03
*DEFINE_CURVE
$        i         i         f         f         f         f
$     lcid      sidr      scla      sclo      offa      offo
         2         0 0.000E+00 0.000E+00 0.000E+00 0.000E+00
$                  f                   f
$                  a                   o
           0.000E+00           0.000E+00
           1.000E+00           0.000E+00
           1.125E+00           1.479E+00
           1.250E+00           2.949E+00
           1.375E+00           4.400E+00
           1.500E+00           5.825E+00
           1.625E+00           7.213E+00
           1.750E+00           8.558E+00
           1.875E+00           9.849E+00
           2.000E+00           1.108E+01
           2.125E+00           1.224E+01
           2.250E+00           1.333E+01
           2.375E+00           1.433E+01
           2.500E+00           1.525E+01
           2.625E+00           1.607E+01
           2.750E+00           1.680E+01
           2.875E+00           1.741E+01
           3.000E+00           1.793E+01
           3.125E+00           1.833E+01
           3.250E+00           1.862E+01
$ ... 22 like lines cut
*DEFINE_CURVE
$        i         i         f         f         f         f
$     lcid      sidr      scla      sclo      offa      offo
         3         0 0.000E+00 0.000E+00 0.000E+00 0.000E+00
$                  f                   f
$                  a                   o
           0.000E+00           0.000E+00
           6.000E+00           0.000E+00
*LOAD_SEGMENT
$        i         f         f         i         i         i         i
$     lcid        sf        at        n1        n2        n3        n4
         1 1.000E+00 0.000E+00       907       900       901       908
         1 1.000E+00 0.000E+00       914       907       908       915
         1 1.000E+00 0.000E+00       921       914       915       922
         1 1.000E+00 0.000E+00       928       921       922       929
         1 1.000E+00 0.000E+00       935       928       929       936
         1 1.000E+00 0.000E+00       942       935       936       943
         1 1.000E+00 0.000E+00       949       942       943       950
         1 1.000E+00 0.000E+00       956       949       950       957
         1 1.000E+00 0.000E+00       963       956       957       964
         1 1.000E+00 0.000E+00       970       963       964       971
         1 1.000E+00 0.000E+00       977       970       971       978
         1 1.000E+00 0.000E+00       984       977       978       985
         1 1.000E+00 0.000E+00       991       984       985       992
         1 1.000E+00 0.000E+00       998       991       992       999
         1 1.000E+00 0.000E+00      1005       998       999      1006
         1 1.000E+00 0.000E+00      1012      1005      1006      1013
         1 1.000E+00 0.000E+00      1019      1012      1013      1020
         1 1.000E+00 0.000E+00      1026      1019      1020      1027
         1 1.000E+00 0.000E+00      1033      1026      1027      1034
         1 1.000E+00 0.000E+00      1040      1033      1034      1041
$ ... 124 like lines cut
*BOUNDARY_PRESCRIBED_MOTION_RIGID
$        i         i         i         i         f         i
$      pid       dof       vad      lcid        sf       vid
         2         2         0         2      -1.0         0
*RIGIDWALL_PLANAR
$        i         i         i
$     nsid    nsidex     boxid
         1         0         0
$        f         f         f         f         f         f         f
$       xt        yt        zt        xh        yh        zh      fric
     0.000     0.000     0.000   0.00000   1.00000   0.00000     0.000 
*SET_NODE_LIST
$        i         f         f         f         f
$      sid       da1       da2       da3       da4
         1
$        i         i         i         i         i         i         i         i
$     nid1      nid2      nid3      nid4      nid5      nid6      nid7      nid8
       900       901       902       903       904       905       906       907
       908       909       910       911       912       913       914       915
       916       917       918       919       920       921       922       923
       924       925       926       927       928       929       930       931
       932       933       934       935       936       937       938       939
       940       941       942       943       944       945       946       947
       948       949       950       951       952       953       954       955
       956       957       958       959       960       961       962       963
       964       965       966       967       968       969       970       971
       972       973       974       975       976       977       978       979
       980       981       982       983       984       985       986       987
       988       989       990       991       992       993       994       995
       996       997       998       999      1000      1001      1002      1003
      1004      1005      1006      1007      1008      1009      1010      1011
      1012      1013      1014      1015      1016      1017      1018      1019
      1020      1021      1022      1023      1024      1025      1026      1027
      1028      1029      1030      1031      1032      1033      1034      1035
      1036      1037      1038      1039      1040      1041      1042      1043
      1044      1045      1046      1047      1048      1049      1050      1051
      1052      1053      1054      1055      1056      1057      1058      1059
      1060      1061      1062      1063      1064      1065      1066      1067
      1068      1069      1070      1071      1072      1073      1074
*END
